Program Version,EnergyPlus, Version 24.2.0-94a887817b, YMD=2025.10.29 14:25
! <Version>, Version ID
 Version, 24.2
! <Timesteps per Hour>, #TimeSteps, Minutes per TimeStep {minutes}
 Timesteps per Hour,  4, 15
! <System Convergence Limits>, Minimum System TimeStep {minutes}, Max HVAC Iterations, Minimum Plant Iterations, Maximum Plant Iterations
 System Convergence Limits, 1, 20, 2, 8
! <Simulation Control>, Do Zone Sizing, Do System Sizing, Do Plant Sizing, Do Design Days, Do Weather Simulation, Do HVAC Sizing Simulation
 Simulation Control, No, No, No, No, Yes, No
! <Performance Precision Tradeoffs>, Use Coil Direct Simulation, Zone Radiant Exchange Algorithm, Override Mode, Number of Timestep In Hour, Force Euler Method, Minimum Number of Warmup Days, Force Suppress All Begin Environment Resets, Minimum System Timestep, MaxZoneTempDiff, MaxAllowedDelTemp
 Performance Precision Tradeoffs, No, ScriptF, Normal, 4, No, 1, No, 1.0, 0.300, 2.0000E-003
! <Output Reporting Tolerances>, Tolerance for Time Heating Setpoint Not Met, Tolerance for Zone Cooling Setpoint Not Met Time
 Output Reporting Tolerances, 0.200, 0.200, 
! <Site:GroundTemperature:BuildingSurface>,Jan{C},Feb{C},Mar{C},Apr{C},May{C},Jun{C},Jul{C},Aug{C},Sep{C},Oct{C},Nov{C},Dec{C}
 Site:GroundTemperature:BuildingSurface,  20.00,  20.00,  20.00,  20.00,  20.00,  20.00,  20.00,  20.00,  20.00,  20.00,  20.00,  20.00
! <Site:GroundTemperature:FCfactorMethod>,Jan{C},Feb{C},Mar{C},Apr{C},May{C},Jun{C},Jul{C},Aug{C},Sep{C},Oct{C},Nov{C},Dec{C}
 Site:GroundTemperature:FCfactorMethod,  -1.89,  -3.06,  -0.99,   2.23,  10.68,  17.20,  21.60,  22.94,  20.66,  15.60,   8.83,   2.56
! <Site:GroundTemperature:Shallow>,Jan{C},Feb{C},Mar{C},Apr{C},May{C},Jun{C},Jul{C},Aug{C},Sep{C},Oct{C},Nov{C},Dec{C}
 Site:GroundTemperature:Shallow,  13.00,  13.00,  13.00,  13.00,  13.00,  13.00,  13.00,  13.00,  13.00,  13.00,  13.00,  13.00
! <Site:GroundTemperature:Deep>,Jan{C},Feb{C},Mar{C},Apr{C},May{C},Jun{C},Jul{C},Aug{C},Sep{C},Oct{C},Nov{C},Dec{C}
 Site:GroundTemperature:Deep,  16.00,  16.00,  16.00,  16.00,  16.00,  16.00,  16.00,  16.00,  16.00,  16.00,  16.00,  16.00
! <Site:GroundReflectance>,Jan{dimensionless},Feb{dimensionless},Mar{dimensionless},Apr{dimensionless},May{dimensionless},Jun{dimensionless},Jul{dimensionless},Aug{dimensionless},Sep{dimensionless},Oct{dimensionless},Nov{dimensionless},Dec{dimensionless}
 Site:GroundReflectance,  0.20,  0.20,  0.20,  0.20,  0.20,  0.20,  0.20,  0.20,  0.20,  0.20,  0.20,  0.20
! <Site:GroundReflectance:SnowModifier>, Normal, Daylighting {dimensionless}
 Site:GroundReflectance:SnowModifier,   1.000,   1.000
! <Site:GroundReflectance:Snow>,Jan{dimensionless},Feb{dimensionless},Mar{dimensionless},Apr{dimensionless},May{dimensionless},Jun{dimensionless},Jul{dimensionless},Aug{dimensionless},Sep{dimensionless},Oct{dimensionless},Nov{dimensionless},Dec{dimensionless}
 Site:GroundReflectance:Snow,  0.20,  0.20,  0.20,  0.20,  0.20,  0.20,  0.20,  0.20,  0.20,  0.20,  0.20,  0.20
! <Site:GroundReflectance:Snow:Daylighting>,Jan{dimensionless},Feb{dimensionless},Mar{dimensionless},Apr{dimensionless},May{dimensionless},Jun{dimensionless},Jul{dimensionless},Aug{dimensionless},Sep{dimensionless},Oct{dimensionless},Nov{dimensionless},Dec{dimensionless}
 Site:GroundReflectance:Snow:Daylighting,  0.20,  0.20,  0.20,  0.20,  0.20,  0.20,  0.20,  0.20,  0.20,  0.20,  0.20,  0.20
! <Environment:Weather Station>,Wind Sensor Height Above Ground {m},Wind Speed Profile Exponent {},Wind Speed Profile Boundary Layer Thickness {m},Air Temperature Sensor Height Above Ground {m},Wind Speed Modifier Coefficient-Internal,Temperature Modifier Coefficient-Internal
Environment:Weather Station,10.000,0.140,270.000,1.500,1.586,9.750E-003
! <Site:Location>, Location Name, Latitude {N+/S- Deg}, Longitude {E+/W- Deg},  Time Zone Number {GMT+/-}, Elevation {m},  Standard Pressure at Elevation {Pa}, Standard RhoAir at Elevation
Site:Location,Chicago Ohare Intl Ap IL USA TMY3 WMO#=725300,41.98,-87.92,-6.00,201.00,98934,1.1759
! <Site Water Mains Temperature Information>,Calculation Method{},Water Mains Temperature Schedule Name{},Annual Average Outdoor Air Temperature{C},Maximum Difference In Monthly Average Outdoor Air Temperatures{deltaC},Fixed Default Water Mains Temperature{C}
Site Water Mains Temperature Information,FixedDefault,NA,NA,NA,10.0
! <Building Information>, Building Name,North Axis {deg},Terrain,  Loads Convergence Tolerance Value,Temperature Convergence Tolerance Value,  Solar Distribution,Maximum Number of Warmup Days,Minimum Number of Warmup Days
 Building Information,Professional Building,0.000,Suburbs,4.00000E-002,0.20000,FullInteriorAndExterior,15,6
! <Inside Convection Algorithm>, Algorithm {Simple | TARP | CeilingDiffuser | AdaptiveConvectionAlgorithm}
Inside Convection Algorithm,TARP
! <Outside Convection Algorithm>, Algorithm {SimpleCombined | TARP | MoWitt | DOE-2 | AdaptiveConvectionAlgorithm}
Outside Convection Algorithm,DOE-2
! <Sky Radiance Distribution>, Value {Anisotropic}
Sky Radiance Distribution,Anisotropic
! <Zone Air Solution Algorithm>, Algorithm {ThirdOrderBackwardDifference | AnalyticalSolution | EulerMethod}, Space Heat Balance Sizing, Space Heat Balance Simulation
 Zone Air Solution Algorithm, ThirdOrderBackwardDifference, No, No
! <Zone Air Carbon Dioxide Balance Simulation>, Simulation {Yes/No}, Carbon Dioxide Concentration
 Zone Air Carbon Dioxide Balance Simulation, No,N/A
! <Zone Air Generic Contaminant Balance Simulation>, Simulation {Yes/No}, Generic Contaminant Concentration
 Zone Air Generic Contaminant Balance Simulation, No,N/A
! <Zone Air Mass Flow Balance Simulation>, Enforce Mass Balance, Adjust Zone Mixing and Return {AdjustMixingOnly | AdjustReturnOnly | AdjustMixingThenReturn | AdjustReturnThenMixing | None}, Adjust Zone Infiltration {AddInfiltration | AdjustInfiltration | None}, Infiltration Zones {MixingSourceZonesOnly | AllZones}
 Zone Air Mass Flow Balance Simulation, No,N/A,N/A,N/A
! <HVACSystemRootFindingAlgorithm>, Value {RegulaFalsi | Bisection | BisectionThenRegulaFalsi | RegulaFalsiThenBisection}
 HVACSystemRootFindingAlgorithm, RegulaFalsi
! <Environment:Site Atmospheric Variation>,Wind Speed Profile Exponent {},Wind Speed Profile Boundary Layer Thickness {m},Air Temperature Gradient Coefficient {K/m}
Environment:Site Atmospheric Variation,0.220,370.000,6.500000E-003
! <Shadowing/Sun Position Calculations Annual Simulations>, Shading Calculation Method, Shading Calculation Update Frequency Method, Shading Calculation Update Frequency {days}, Maximum Figures in Shadow Overlap Calculations {}, Polygon Clipping Algorithm, Pixel Counting Resolution, Sky Diffuse Modeling Algorithm, Output External Shading Calculation Results, Disable Self-Shading Within Shading Zone Groups, Disable Self-Shading From Shading Zone Groups to Other Zones
Shadowing/Sun Position Calculations Annual Simulations,PolygonClipping,Periodic,20,15000,SutherlandHodgman,512,SimpleSkyDiffuseModeling,No,No,No
! <Surface Geometry>,Starting Corner,Vertex Input Direction,Coordinate System,Daylight Reference Point Coordinate System,Rectangular (Simple) Surface Coordinate System
 Surface Geometry,UpperLeftCorner,Counterclockwise,RelativeCoordinateSystem,RelativeCoordinateSystem,RelativeToZoneOrigin
! <Surface Heat Transfer Algorithm>, Value {CTF - ConductionTransferFunction | EMPD - MoisturePenetrationDepthConductionTransferFunction | CondFD - ConductionFiniteDifference | HAMT - CombinedHeatAndMoistureFiniteElement} - Description,Inside Surface Max Temperature Limit{C}, Surface Convection Coefficient Lower Limit {W/m2-K}, Surface Convection Coefficient Upper Limit {W/m2-K}
Surface Heat Transfer Algorithm, CTF - ConductionTransferFunction,200,0.10,1000.0
! <Shading Summary>, Number of Fixed Detached Shades, Number of Building Detached Shades, Number of Attached Shades
 Shading Summary,0,0,0
! <Zone Summary>, Number of Zones, Number of Zone Surfaces, Number of SubSurfaces
 Zone Summary,21,210,84
! <Zone Information>,Zone Name,North Axis {deg},Origin X-Coordinate {m},Origin Y-Coordinate {m},Origin Z-Coordinate {m},Centroid X-Coordinate {m},Centroid Y-Coordinate {m},Centroid Z-Coordinate {m},Type,Zone Multiplier,Zone List Multiplier,Minimum X {m},Maximum X {m},Minimum Y {m},Maximum Y {m},Minimum Z {m},Maximum Z {m},Ceiling Height {m},Volume {m3},Zone Inside Convection Algorithm {Simple-Detailed-CeilingDiffuser-TrombeWall},Zone Outside Convection Algorithm {Simple-Detailed-Tarp-MoWitt-DOE-2-BLAST}, Floor Area {m2},Exterior Gross Wall Area {m2},Exterior Net Wall Area {m2},Exterior Window Area {m2}, Number of Surfaces, Number of SubSurfaces, Number of Shading SubSurfaces,  Part of Total Building Area
 Zone Information, LOBBY_0,0.0,0.00,0.00,0.00,0.43,-2.48,1.50,1,1,1,-4.60,5.47,-12.21,7.26,0.00,3.00,3.00,579.54,TARP,DOE-2,193.18,176.07,114.60,61.47,6,4,0,Yes
 Zone Information, CONFERENCE_0,0.0,0.00,0.00,0.00,3.01,4.68,1.50,1,1,1,-0.32,6.33,0.32,9.05,0.00,3.00,3.00,169.65,TARP,DOE-2,56.55,91.10,59.33,31.77,6,4,0,Yes
 Zone Information, BREAK_ROOM_0,0.0,0.00,0.00,0.00,9.72,2.56,1.50,1,1,1,7.14,12.29,-2.40,7.53,0.00,3.00,3.00,148.98,TARP,DOE-2,49.66,89.29,58.12,31.18,6,4,0,Yes
 Zone Information, MECHANICAL_0,0.0,0.00,0.00,0.00,2.69,0.14,1.50,1,1,1,-0.78,6.17,-6.50,6.78,0.00,3.00,3.00,270.55,TARP,DOE-2,90.18,120.15,78.20,41.95,6,4,0,Yes
 Zone Information, OFFICE_OPEN_0,0.0,0.00,0.00,0.00,-10.76,-1.93,1.50,1,1,1,-15.88,-5.64,-10.19,6.33,0.00,3.00,3.00,499.14,TARP,DOE-2,166.38,159.31,103.72,55.59,6,4,0,Yes
 Zone Information, OFFICE_PRIVATE_0,0.0,0.00,0.00,0.00,-3.87,-7.63,1.50,1,1,1,-6.33,-1.40,-12.24,-3.02,0.00,3.00,3.00,132.00,TARP,DOE-2,44.00,83.67,54.46,29.21,6,4,0,Yes
 Zone Information, STORAGE_0,0.0,0.00,0.00,0.00,-10.53,-7.47,1.50,1,1,1,-13.08,-7.98,-10.91,-4.02,0.00,3.00,3.00,101.75,TARP,DOE-2,33.92,70.70,46.05,24.66,6,4,0,Yes
 Zone Information, LOBBY_1,0.0,0.00,0.00,0.00,-1.78,-3.34,4.50,1,1,1,-7.70,4.13,-11.67,4.98,3.00,6.00,3.00,582.49,TARP,DOE-2,194.16,169.69,110.51,59.18,6,4,0,Yes
 Zone Information, CONFERENCE_1,0.0,0.00,0.00,0.00,-1.34,-1.54,4.50,1,1,1,-4.35,1.68,-7.47,4.39,3.00,6.00,3.00,209.01,TARP,DOE-2,69.67,106.10,69.05,37.05,6,4,0,Yes
 Zone Information, BREAK_ROOM_1,0.0,0.00,0.00,0.00,7.32,7.43,4.50,1,1,1,3.94,10.71,3.35,11.51,3.00,6.00,3.00,161.40,TARP,DOE-2,53.80,88.41,57.59,30.82,6,4,0,Yes
 Zone Information, MECHANICAL_1,0.0,0.00,0.00,0.00,-12.23,5.33,4.50,1,1,1,-15.71,-8.75,0.54,10.11,3.00,6.00,3.00,195.03,TARP,DOE-2,65.01,98.02,63.83,34.18,6,4,0,Yes
 Zone Information, OFFICE_OPEN_1,0.0,0.00,0.00,0.00,3.56,-1.34,4.50,1,1,1,-6.57,13.68,-13.35,10.67,3.00,6.00,3.00,1446.38,TARP,DOE-2,482.13,264.46,172.28,92.18,6,4,0,Yes
 Zone Information, OFFICE_PRIVATE_1,0.0,0.00,0.00,0.00,-5.02,-3.84,4.50,1,1,1,-6.73,-3.31,-6.73,-0.95,3.00,6.00,3.00,56.47,TARP,DOE-2,18.82,53.94,35.12,18.83,6,4,0,Yes
 Zone Information, STORAGE_1,0.0,0.00,0.00,0.00,3.13,-3.50,4.50,1,1,1,1.20,5.06,-6.33,-0.66,3.00,6.00,3.00,62.69,TARP,DOE-2,20.90,55.92,36.41,19.51,6,4,0,Yes
 Zone Information, LOBBY_2,0.0,0.00,0.00,0.00,-13.16,-6.17,7.50,1,1,1,-17.27,-9.05,-11.58,-0.76,6.00,9.00,3.00,261.32,TARP,DOE-2,87.11,113.08,73.65,39.43,6,4,0,Yes
 Zone Information, CONFERENCE_2,0.0,0.00,0.00,0.00,-10.22,-4.21,7.50,1,1,1,-13.63,-6.81,-9.50,1.09,6.00,9.00,3.00,211.69,TARP,DOE-2,70.56,103.30,67.26,36.04,6,4,0,Yes
 Zone Information, BREAK_ROOM_2,0.0,0.00,0.00,0.00,4.12,4.41,7.50,1,1,1,1.27,6.97,-0.26,9.07,6.00,9.00,3.00,155.06,TARP,DOE-2,51.69,88.98,57.93,31.05,6,4,0,Yes
 Zone Information, MECHANICAL_2,0.0,0.00,0.00,0.00,6.68,-2.03,7.50,1,1,1,3.47,9.89,-7.78,3.71,6.00,9.00,3.00,215.64,TARP,DOE-2,71.88,106.20,69.13,37.07,6,4,0,Yes
 Zone Information, OFFICE_OPEN_2,0.0,0.00,0.00,0.00,-8.31,-0.39,7.50,1,1,1,-15.19,-1.44,-13.38,12.59,6.00,9.00,3.00,1059.30,TARP,DOE-2,353.10,237.12,154.34,82.78,6,4,0,Yes
 Zone Information, OFFICE_PRIVATE_2,0.0,0.00,0.00,0.00,-0.36,-4.68,7.50,1,1,1,-2.74,2.02,-8.17,-1.19,6.00,9.00,3.00,96.32,TARP,DOE-2,32.11,69.30,45.12,24.17,6,4,0,Yes
 Zone Information, STORAGE_2,0.0,0.00,0.00,0.00,13.39,-0.28,7.50,1,1,1,11.38,15.40,-2.54,1.97,6.00,9.00,3.00,51.98,TARP,DOE-2,17.33,50.04,32.60,17.44,6,4,0,Yes
! <Zone Internal Gains Nominal>,Zone Name, Floor Area {m2},# Occupants,Area per Occupant {m2/person},Occupant per Area {person/m2},Interior Lighting {W/m2},Electric Load {W/m2},Gas Load {W/m2},Other Load {W/m2},Hot Water Eq {W/m2},Steam Equipment {W/m2},Sum Loads per Area {W/m2},Outdoor Controlled Baseboard Heat
 Zone Internal Gains Nominal, LOBBY_0,193.18,9.0,21.464,4.659E-002,12.900,3.200,0.000,0.000,0.000,0.000,16.100,No
 Zone Internal Gains Nominal, CONFERENCE_0,56.55,11.0,5.141,0.195,10.800,8.100,0.000,0.000,0.000,0.000,18.900,No
 Zone Internal Gains Nominal, BREAK_ROOM_0,49.66,4.0,12.415,8.055E-002,8.100,15.000,0.000,0.000,0.000,0.000,23.100,No
 Zone Internal Gains Nominal, MECHANICAL_0,90.18,1.0,90.184,1.109E-002,5.400,0.000,0.000,0.000,0.000,0.000,5.400,No
 Zone Internal Gains Nominal, OFFICE_OPEN_0,166.38,8.0,20.797,4.808E-002,10.800,8.100,0.000,0.000,0.000,0.000,18.900,No
 Zone Internal Gains Nominal, OFFICE_PRIVATE_0,44.00,2.0,22.000,4.545E-002,10.800,8.100,0.000,0.000,0.000,0.000,18.900,No
 Zone Internal Gains Nominal, STORAGE_0,33.92,1.0,33.918,2.948E-002,5.400,1.100,0.000,0.000,0.000,0.000,6.500,No
 Zone Internal Gains Nominal, LOBBY_1,194.16,9.0,21.574,4.635E-002,12.900,3.200,0.000,0.000,0.000,0.000,16.100,No
 Zone Internal Gains Nominal, CONFERENCE_1,69.67,13.0,5.359,0.187,10.800,8.100,0.000,0.000,0.000,0.000,18.900,No
 Zone Internal Gains Nominal, BREAK_ROOM_1,53.80,5.0,10.760,9.294E-002,8.100,15.000,0.000,0.000,0.000,0.000,23.100,No
 Zone Internal Gains Nominal, MECHANICAL_1,65.01,1.0,65.012,1.538E-002,5.400,0.000,0.000,0.000,0.000,0.000,5.400,No
 Zone Internal Gains Nominal, OFFICE_OPEN_1,482.13,24.0,20.089,4.978E-002,10.800,8.100,0.000,0.000,0.000,0.000,18.900,No
 Zone Internal Gains Nominal, OFFICE_PRIVATE_1,18.82,1.0,18.825,5.312E-002,10.800,8.100,0.000,0.000,0.000,0.000,18.900,No
 Zone Internal Gains Nominal, STORAGE_1,20.90,1.0,20.896,4.786E-002,5.400,1.100,0.000,0.000,0.000,0.000,6.500,No
 Zone Internal Gains Nominal, LOBBY_2,87.11,4.0,21.776,4.592E-002,12.900,3.200,0.000,0.000,0.000,0.000,16.100,No
 Zone Internal Gains Nominal, CONFERENCE_2,70.56,14.0,5.040,0.198,10.800,8.100,0.000,0.000,0.000,0.000,18.900,No
 Zone Internal Gains Nominal, BREAK_ROOM_2,51.69,5.0,10.337,9.674E-002,8.100,15.000,0.000,0.000,0.000,0.000,23.100,No
 Zone Internal Gains Nominal, MECHANICAL_2,71.88,1.0,71.880,1.391E-002,5.400,0.000,0.000,0.000,0.000,0.000,5.400,No
 Zone Internal Gains Nominal, OFFICE_OPEN_2,353.10,17.0,20.771,4.814E-002,10.800,8.100,0.000,0.000,0.000,0.000,18.900,No
 Zone Internal Gains Nominal, OFFICE_PRIVATE_2,32.11,1.0,32.108,3.114E-002,10.800,8.100,0.000,0.000,0.000,0.000,18.900,No
 Zone Internal Gains Nominal, STORAGE_2,17.33,1.0,17.325,5.772E-002,5.400,1.100,0.000,0.000,0.000,0.000,6.500,No
! <People Internal Gains Nominal>,Name,Schedule Name,Zone Name,Zone Floor Area {m2},# Zone Occupants,Number of People {},People/Floor Area {person/m2},Floor Area per person {m2/person},Fraction Radiant,Fraction Convected,Sensible Fraction Calculation,Activity level,ASHRAE 55 Warnings,Carbon Dioxide Generation Rate,Minimum Number of People for All Day Types,Maximum Number of People for All Day Types,Minimum Number of People for Weekdays, Maximum Number of People for Weekdays, Minimum Number of People for Weekends/Holidays, Maximum Number of People for Weekends /Holidays,Minimum Number of People for Summer Design Days, Maximum Number of People for Summer Design Days,Minimum Number of People for Winter Design Days, Maximum Number of People for Winter Design Days
 People Internal Gains Nominal, LOBBY_0_PEOPLE,LOBBY_OCCUPANCY,LOBBY_0,193.18,9.0,9.0,4.659E-002,21.464,0.300,0.700,0.100,LOBBY_ACTIVITY,No,3.8200E-008,7.2,7.2,7.2,7.2,7.2,7.2,7.2,7.2,7.2,7.2,
 People Internal Gains Nominal, CONFERENCE_0_PEOPLE,CONFERENCE_OCCUPANCY,CONFERENCE_0,56.55,11.0,11.0,0.195,5.141,0.300,0.700,0.100,CONFERENCE_ACTIVITY,No,3.8200E-008,8.8,8.8,8.8,8.8,8.8,8.8,8.8,8.8,8.8,8.8,
 People Internal Gains Nominal, BREAK_ROOM_0_PEOPLE,BREAK_ROOM_OCCUPANCY,BREAK_ROOM_0,49.66,4.0,4.0,8.055E-002,12.415,0.300,0.700,0.100,BREAK_ROOM_ACTIVITY,No,3.8200E-008,3.2,3.2,3.2,3.2,3.2,3.2,3.2,3.2,3.2,3.2,
 People Internal Gains Nominal, MECHANICAL_0_PEOPLE,MECHANICAL_OCCUPANCY,MECHANICAL_0,90.18,1.0,1.0,1.109E-002,90.184,0.300,0.700,0.100,MECHANICAL_ACTIVITY,No,3.8200E-008,0.8,0.8,0.8,0.8,0.8,0.8,0.8,0.8,0.8,0.8,
 People Internal Gains Nominal, OFFICE_OPEN_0_PEOPLE,OFFICE_OPEN_OCCUPANCY,OFFICE_OPEN_0,166.38,8.0,8.0,4.808E-002,20.797,0.300,0.700,0.100,OFFICE_OPEN_ACTIVITY,No,3.8200E-008,6.4,6.4,6.4,6.4,6.4,6.4,6.4,6.4,6.4,6.4,
 People Internal Gains Nominal, OFFICE_PRIVATE_0_PEOPLE,OFFICE_OPEN_OCCUPANCY,OFFICE_PRIVATE_0,44.00,2.0,2.0,4.545E-002,22.000,0.300,0.700,0.100,OFFICE_OPEN_ACTIVITY,No,3.8200E-008,1.6,1.6,1.6,1.6,1.6,1.6,1.6,1.6,1.6,1.6,
 People Internal Gains Nominal, STORAGE_0_PEOPLE,STORAGE_OCCUPANCY,STORAGE_0,33.92,1.0,1.0,2.948E-002,33.918,0.300,0.700,0.100,STORAGE_ACTIVITY,No,3.8200E-008,0.8,0.8,0.8,0.8,0.8,0.8,0.8,0.8,0.8,0.8,
 People Internal Gains Nominal, LOBBY_1_PEOPLE,LOBBY_OCCUPANCY,LOBBY_1,194.16,9.0,9.0,4.635E-002,21.574,0.300,0.700,0.100,LOBBY_ACTIVITY,No,3.8200E-008,7.2,7.2,7.2,7.2,7.2,7.2,7.2,7.2,7.2,7.2,
 People Internal Gains Nominal, CONFERENCE_1_PEOPLE,CONFERENCE_OCCUPANCY,CONFERENCE_1,69.67,13.0,13.0,0.187,5.359,0.300,0.700,0.100,CONFERENCE_ACTIVITY,No,3.8200E-008,10.4,10.4,10.4,10.4,10.4,10.4,10.4,10.4,10.4,10.4,
 People Internal Gains Nominal, BREAK_ROOM_1_PEOPLE,BREAK_ROOM_OCCUPANCY,BREAK_ROOM_1,53.80,5.0,5.0,9.294E-002,10.760,0.300,0.700,0.100,BREAK_ROOM_ACTIVITY,No,3.8200E-008,4.0,4.0,4.0,4.0,4.0,4.0,4.0,4.0,4.0,4.0,
 People Internal Gains Nominal, MECHANICAL_1_PEOPLE,MECHANICAL_OCCUPANCY,MECHANICAL_1,65.01,1.0,1.0,1.538E-002,65.012,0.300,0.700,0.100,MECHANICAL_ACTIVITY,No,3.8200E-008,0.8,0.8,0.8,0.8,0.8,0.8,0.8,0.8,0.8,0.8,
 People Internal Gains Nominal, OFFICE_OPEN_1_PEOPLE,OFFICE_OPEN_OCCUPANCY,OFFICE_OPEN_1,482.13,24.0,24.0,4.978E-002,20.089,0.300,0.700,0.100,OFFICE_OPEN_ACTIVITY,No,3.8200E-008,19.2,19.2,19.2,19.2,19.2,19.2,19.2,19.2,19.2,19.2,
 People Internal Gains Nominal, OFFICE_PRIVATE_1_PEOPLE,OFFICE_OPEN_OCCUPANCY,OFFICE_PRIVATE_1,18.82,1.0,1.0,5.312E-002,18.825,0.300,0.700,0.100,OFFICE_OPEN_ACTIVITY,No,3.8200E-008,0.8,0.8,0.8,0.8,0.8,0.8,0.8,0.8,0.8,0.8,
 People Internal Gains Nominal, STORAGE_1_PEOPLE,STORAGE_OCCUPANCY,STORAGE_1,20.90,1.0,1.0,4.786E-002,20.896,0.300,0.700,0.100,STORAGE_ACTIVITY,No,3.8200E-008,0.8,0.8,0.8,0.8,0.8,0.8,0.8,0.8,0.8,0.8,
 People Internal Gains Nominal, LOBBY_2_PEOPLE,LOBBY_OCCUPANCY,LOBBY_2,87.11,4.0,4.0,4.592E-002,21.776,0.300,0.700,0.100,LOBBY_ACTIVITY,No,3.8200E-008,3.2,3.2,3.2,3.2,3.2,3.2,3.2,3.2,3.2,3.2,
 People Internal Gains Nominal, CONFERENCE_2_PEOPLE,CONFERENCE_OCCUPANCY,CONFERENCE_2,70.56,14.0,14.0,0.198,5.040,0.300,0.700,0.100,CONFERENCE_ACTIVITY,No,3.8200E-008,11.2,11.2,11.2,11.2,11.2,11.2,11.2,11.2,11.2,11.2,
 People Internal Gains Nominal, BREAK_ROOM_2_PEOPLE,BREAK_ROOM_OCCUPANCY,BREAK_ROOM_2,51.69,5.0,5.0,9.674E-002,10.337,0.300,0.700,0.100,BREAK_ROOM_ACTIVITY,No,3.8200E-008,4.0,4.0,4.0,4.0,4.0,4.0,4.0,4.0,4.0,4.0,
 People Internal Gains Nominal, MECHANICAL_2_PEOPLE,MECHANICAL_OCCUPANCY,MECHANICAL_2,71.88,1.0,1.0,1.391E-002,71.880,0.300,0.700,0.100,MECHANICAL_ACTIVITY,No,3.8200E-008,0.8,0.8,0.8,0.8,0.8,0.8,0.8,0.8,0.8,0.8,
 People Internal Gains Nominal, OFFICE_OPEN_2_PEOPLE,OFFICE_OPEN_OCCUPANCY,OFFICE_OPEN_2,353.10,17.0,17.0,4.814E-002,20.771,0.300,0.700,0.100,OFFICE_OPEN_ACTIVITY,No,3.8200E-008,13.6,13.6,13.6,13.6,13.6,13.6,13.6,13.6,13.6,13.6,
 People Internal Gains Nominal, OFFICE_PRIVATE_2_PEOPLE,OFFICE_OPEN_OCCUPANCY,OFFICE_PRIVATE_2,32.11,1.0,1.0,3.114E-002,32.108,0.300,0.700,0.100,OFFICE_OPEN_ACTIVITY,No,3.8200E-008,0.8,0.8,0.8,0.8,0.8,0.8,0.8,0.8,0.8,0.8,
 People Internal Gains Nominal, STORAGE_2_PEOPLE,STORAGE_OCCUPANCY,STORAGE_2,17.33,1.0,1.0,5.772E-002,17.325,0.300,0.700,0.100,STORAGE_ACTIVITY,No,3.8200E-008,0.8,0.8,0.8,0.8,0.8,0.8,0.8,0.8,0.8,0.8,
! <Lights Internal Gains Nominal>,Name,Schedule Name,Zone Name,Zone Floor Area {m2},# Zone Occupants,Lighting Level {W},Lights/Floor Area {W/m2},Lights per person {W/person},Fraction Return Air,Fraction Radiant,Fraction Short Wave,Fraction Convected,Fraction Replaceable,End-Use, Minimum Lighting Level for All Day Types {W},Maximum Lighting Level for All Day Types {W},Minimum Lighting Level for Weekdays {W}, Maximum Lighting Level for Weekdays {W},Minimum Lighting Level for Weekends/Holidays {W}, Maximum Lighting Level for Weekends /Holidays {W},Minimum Lighting Level for Summer Design Days {W}, Maximum Lighting Level for Summer Design Days {W},Minimum Lighting Level for Winter Design Days {W}, Maximum Lighting Level for Winter Design Days {W}
 Lights Internal Gains Nominal, LOBBY_0_LIGHTS,LOBBY_LIGHTING,LOBBY_0,193.18,9.0,2492.016,12.900,276.891,0.000,0.300,0.200,0.500,1.000,General,2492.016,2492.016,2492.016,2492.0,2492.016,2492.016,2492.016,2492.016,2492.016,2492.016
 Lights Internal Gains Nominal, CONFERENCE_0_LIGHTS,CONFERENCE_LIGHTING,CONFERENCE_0,56.55,11.0,610.745,10.800,55.522,0.000,0.300,0.200,0.500,1.000,General,610.745,610.745,610.745,610.7,610.745,610.745,610.745,610.745,610.745,610.745
 Lights Internal Gains Nominal, BREAK_ROOM_0_LIGHTS,BREAK_ROOM_LIGHTING,BREAK_ROOM_0,49.66,4.0,402.245,8.100,100.561,0.000,0.300,0.200,0.500,1.000,General,402.245,402.245,402.245,402.2,402.245,402.245,402.245,402.245,402.245,402.245
 Lights Internal Gains Nominal, MECHANICAL_0_LIGHTS,MECHANICAL_LIGHTING,MECHANICAL_0,90.18,1.0,486.996,5.400,486.996,0.000,0.300,0.200,0.500,1.000,General,486.996,486.996,486.996,487.0,486.996,486.996,486.996,486.996,486.996,486.996
 Lights Internal Gains Nominal, OFFICE_OPEN_0_LIGHTS,OFFICE_OPEN_LIGHTING,OFFICE_OPEN_0,166.38,8.0,1796.892,10.800,224.612,0.000,0.300,0.200,0.500,1.000,General,1796.892,1796.892,1796.892,1796.9,1796.892,1796.892,1796.892,1796.892,1796.892,1796.892
 Lights Internal Gains Nominal, OFFICE_PRIVATE_0_LIGHTS,OFFICE_OPEN_LIGHTING,OFFICE_PRIVATE_0,44.00,2.0,475.207,10.800,237.604,0.000,0.300,0.200,0.500,1.000,General,475.207,475.207,475.207,475.2,475.207,475.207,475.207,475.207,475.207,475.207
 Lights Internal Gains Nominal, STORAGE_0_LIGHTS,STORAGE_LIGHTING,STORAGE_0,33.92,1.0,183.157,5.400,183.157,0.000,0.300,0.200,0.500,1.000,General,183.157,183.157,183.157,183.2,183.157,183.157,183.157,183.157,183.157,183.157
 Lights Internal Gains Nominal, LOBBY_1_LIGHTS,LOBBY_LIGHTING,LOBBY_1,194.16,9.0,2504.728,12.900,278.303,0.000,0.300,0.200,0.500,1.000,General,2504.728,2504.728,2504.728,2504.7,2504.728,2504.728,2504.728,2504.728,2504.728,2504.728
 Lights Internal Gains Nominal, CONFERENCE_1_LIGHTS,CONFERENCE_LIGHTING,CONFERENCE_1,69.67,13.0,752.439,10.800,57.880,0.000,0.300,0.200,0.500,1.000,General,752.439,752.439,752.439,752.4,752.439,752.439,752.439,752.439,752.439,752.439
 Lights Internal Gains Nominal, BREAK_ROOM_1_LIGHTS,BREAK_ROOM_LIGHTING,BREAK_ROOM_1,53.80,5.0,435.783,8.100,87.157,0.000,0.300,0.200,0.500,1.000,General,435.783,435.783,435.783,435.8,435.783,435.783,435.783,435.783,435.783,435.783
 Lights Internal Gains Nominal, MECHANICAL_1_LIGHTS,MECHANICAL_LIGHTING,MECHANICAL_1,65.01,1.0,351.063,5.400,351.063,0.000,0.300,0.200,0.500,1.000,General,351.063,351.063,351.063,351.1,351.063,351.063,351.063,351.063,351.063,351.063
 Lights Internal Gains Nominal, OFFICE_OPEN_1_LIGHTS,OFFICE_OPEN_LIGHTING,OFFICE_OPEN_1,482.13,24.0,5206.953,10.800,216.956,0.000,0.300,0.200,0.500,1.000,General,5206.953,5206.953,5206.953,5207.0,5206.953,5206.953,5206.953,5206.953,5206.953,5206.953
 Lights Internal Gains Nominal, OFFICE_PRIVATE_1_LIGHTS,OFFICE_OPEN_LIGHTING,OFFICE_PRIVATE_1,18.82,1.0,203.307,10.800,203.307,0.000,0.300,0.200,0.500,1.000,General,203.307,203.307,203.307,203.3,203.307,203.307,203.307,203.307,203.307,203.307
 Lights Internal Gains Nominal, STORAGE_1_LIGHTS,STORAGE_LIGHTING,STORAGE_1,20.90,1.0,112.840,5.400,112.840,0.000,0.300,0.200,0.500,1.000,General,112.840,112.840,112.840,112.8,112.840,112.840,112.840,112.840,112.840,112.840
 Lights Internal Gains Nominal, LOBBY_2_LIGHTS,LOBBY_LIGHTING,LOBBY_2,87.11,4.0,1123.666,12.900,280.916,0.000,0.300,0.200,0.500,1.000,General,1123.666,1123.666,1123.666,1123.7,1123.666,1123.666,1123.666,1123.666,1123.666,1123.666
 Lights Internal Gains Nominal, CONFERENCE_2_LIGHTS,CONFERENCE_LIGHTING,CONFERENCE_2,70.56,14.0,762.084,10.800,54.435,0.000,0.300,0.200,0.500,1.000,General,762.084,762.084,762.084,762.1,762.084,762.084,762.084,762.084,762.084,762.084
 Lights Internal Gains Nominal, BREAK_ROOM_2_LIGHTS,BREAK_ROOM_LIGHTING,BREAK_ROOM_2,51.69,5.0,418.654,8.100,83.731,0.000,0.300,0.200,0.500,1.000,General,418.654,418.654,418.654,418.7,418.654,418.654,418.654,418.654,418.654,418.654
 Lights Internal Gains Nominal, MECHANICAL_2_LIGHTS,MECHANICAL_LIGHTING,MECHANICAL_2,71.88,1.0,388.152,5.400,388.152,0.000,0.300,0.200,0.500,1.000,General,388.152,388.152,388.152,388.2,388.152,388.152,388.152,388.152,388.152,388.152
 Lights Internal Gains Nominal, OFFICE_OPEN_2_LIGHTS,OFFICE_OPEN_LIGHTING,OFFICE_OPEN_2,353.10,17.0,3813.495,10.800,224.323,0.000,0.300,0.200,0.500,1.000,General,3813.495,3813.495,3813.495,3813.5,3813.495,3813.495,3813.495,3813.495,3813.495,3813.495
 Lights Internal Gains Nominal, OFFICE_PRIVATE_2_LIGHTS,OFFICE_OPEN_LIGHTING,OFFICE_PRIVATE_2,32.11,1.0,346.766,10.800,346.766,0.000,0.300,0.200,0.500,1.000,General,346.766,346.766,346.766,346.8,346.766,346.766,346.766,346.766,346.766,346.766
 Lights Internal Gains Nominal, STORAGE_2_LIGHTS,STORAGE_LIGHTING,STORAGE_2,17.33,1.0,93.556,5.400,93.556,0.000,0.300,0.200,0.500,1.000,General,93.556,93.556,93.556,93.6,93.556,93.556,93.556,93.556,93.556,93.556
! <ElectricEquipment Internal Gains Nominal>,Name,Schedule Name,Zone Name,Zone Floor Area {m2},# Zone Occupants,Equipment Level {W},Equipment/Floor Area {W/m2},Equipment per person {W/person},Fraction Latent,Fraction Radiant,Fraction Lost,Fraction Convected,End-Use SubCategory,Minimum Equipment Level for All Day Types {W},Maximum Equipment Level for All Day Types {W},Minimum Equipment Level for Weekdays {W}, Maximum Equipment Level for Weekdays {W},Minimum Equipment Level for Weekends/Holidays {W}, Maximum Equipment Level for Weekends /Holidays {W},Minimum Equipment Level for Summer Design Days {W}, Maximum Equipment Level for Summer Design Days {W},Minimum Equipment Level for Winter Design Days {W}, Maximum Equipment Level for Winter Design Days {W}
 ElectricEquipment Internal Gains Nominal, LOBBY_0_EQUIPMENT,LOBBY_EQUIPMENT,LOBBY_0,193.18,9.0,618.175,3.200,68.686,0.100,0.200,0.000,0.700,General,432.722,432.722,432.722,432.722,432.722,432.722,432.722,432.722,432.722,432.722
 ElectricEquipment Internal Gains Nominal, CONFERENCE_0_EQUIPMENT,CONFERENCE_EQUIPMENT,CONFERENCE_0,56.55,11.0,458.059,8.100,41.642,0.100,0.200,0.000,0.700,General,320.641,320.641,320.641,320.641,320.641,320.641,320.641,320.641,320.641,320.641
 ElectricEquipment Internal Gains Nominal, BREAK_ROOM_0_EQUIPMENT,BREAK_ROOM_EQUIPMENT,BREAK_ROOM_0,49.66,4.0,744.898,15.000,186.224,0.100,0.200,0.000,0.700,General,521.428,521.428,521.428,521.428,521.428,521.428,521.428,521.428,521.428,521.428
 ElectricEquipment Internal Gains Nominal, MECHANICAL_0_EQUIPMENT,MECHANICAL_EQUIPMENT,MECHANICAL_0,90.18,1.0,0.000,0.000,0.000,0.100,0.200,0.000,0.700,General,0.000,0.000,0.000,0.000,0.000,0.000,0.000,0.000,0.000,0.000
 ElectricEquipment Internal Gains Nominal, OFFICE_OPEN_0_EQUIPMENT,OFFICE_OPEN_EQUIPMENT,OFFICE_OPEN_0,166.38,8.0,1347.669,8.100,168.459,0.100,0.200,0.000,0.700,General,943.368,943.368,943.368,943.368,943.368,943.368,943.368,943.368,943.368,943.368
 ElectricEquipment Internal Gains Nominal, OFFICE_PRIVATE_0_EQUIPMENT,OFFICE_OPEN_EQUIPMENT,OFFICE_PRIVATE_0,44.00,2.0,356.405,8.100,178.203,0.100,0.200,0.000,0.700,General,249.484,249.484,249.484,249.484,249.484,249.484,249.484,249.484,249.484,249.484
 ElectricEquipment Internal Gains Nominal, STORAGE_0_EQUIPMENT,STORAGE_EQUIPMENT,STORAGE_0,33.92,1.0,37.310,1.100,37.310,0.100,0.200,0.000,0.700,General,26.117,26.117,26.117,26.117,26.117,26.117,26.117,26.117,26.117,26.117
 ElectricEquipment Internal Gains Nominal, LOBBY_1_EQUIPMENT,LOBBY_EQUIPMENT,LOBBY_1,194.16,9.0,621.328,3.200,69.036,0.100,0.200,0.000,0.700,General,434.929,434.929,434.929,434.929,434.929,434.929,434.929,434.929,434.929,434.929
 ElectricEquipment Internal Gains Nominal, CONFERENCE_1_EQUIPMENT,CONFERENCE_EQUIPMENT,CONFERENCE_1,69.67,13.0,564.329,8.100,43.410,0.100,0.200,0.000,0.700,General,395.030,395.030,395.030,395.030,395.030,395.030,395.030,395.030,395.030,395.030
 ElectricEquipment Internal Gains Nominal, BREAK_ROOM_1_EQUIPMENT,BREAK_ROOM_EQUIPMENT,BREAK_ROOM_1,53.80,5.0,807.006,15.000,161.401,0.100,0.200,0.000,0.700,General,564.904,564.904,564.904,564.904,564.904,564.904,564.904,564.904,564.904,564.904
 ElectricEquipment Internal Gains Nominal, MECHANICAL_1_EQUIPMENT,MECHANICAL_EQUIPMENT,MECHANICAL_1,65.01,1.0,0.000,0.000,0.000,0.100,0.200,0.000,0.700,General,0.000,0.000,0.000,0.000,0.000,0.000,0.000,0.000,0.000,0.000
 ElectricEquipment Internal Gains Nominal, OFFICE_OPEN_1_EQUIPMENT,OFFICE_OPEN_EQUIPMENT,OFFICE_OPEN_1,482.13,24.0,3905.215,8.100,162.717,0.100,0.200,0.000,0.700,General,2733.650,2733.650,2733.650,2733.650,2733.650,2733.650,2733.650,2733.650,2733.650,2733.650
 ElectricEquipment Internal Gains Nominal, OFFICE_PRIVATE_1_EQUIPMENT,OFFICE_OPEN_EQUIPMENT,OFFICE_PRIVATE_1,18.82,1.0,152.480,8.100,152.480,0.100,0.200,0.000,0.700,General,106.736,106.736,106.736,106.736,106.736,106.736,106.736,106.736,106.736,106.736
 ElectricEquipment Internal Gains Nominal, STORAGE_1_EQUIPMENT,STORAGE_EQUIPMENT,STORAGE_1,20.90,1.0,22.986,1.100,22.986,0.100,0.200,0.000,0.700,General,16.090,16.090,16.090,16.090,16.090,16.090,16.090,16.090,16.090,16.090
 ElectricEquipment Internal Gains Nominal, LOBBY_2_EQUIPMENT,LOBBY_EQUIPMENT,LOBBY_2,87.11,4.0,278.739,3.200,69.685,0.100,0.200,0.000,0.700,General,195.117,195.117,195.117,195.117,195.117,195.117,195.117,195.117,195.117,195.117
 ElectricEquipment Internal Gains Nominal, CONFERENCE_2_EQUIPMENT,CONFERENCE_EQUIPMENT,CONFERENCE_2,70.56,14.0,571.563,8.100,40.826,0.100,0.200,0.000,0.700,General,400.094,400.094,400.094,400.094,400.094,400.094,400.094,400.094,400.094,400.094
 ElectricEquipment Internal Gains Nominal, BREAK_ROOM_2_EQUIPMENT,BREAK_ROOM_EQUIPMENT,BREAK_ROOM_2,51.69,5.0,775.285,15.000,155.057,0.100,0.200,0.000,0.700,General,542.699,542.699,542.699,542.699,542.699,542.699,542.699,542.699,542.699,542.699
 ElectricEquipment Internal Gains Nominal, MECHANICAL_2_EQUIPMENT,MECHANICAL_EQUIPMENT,MECHANICAL_2,71.88,1.0,0.000,0.000,0.000,0.100,0.200,0.000,0.700,General,0.000,0.000,0.000,0.000,0.000,0.000,0.000,0.000,0.000,0.000
 ElectricEquipment Internal Gains Nominal, OFFICE_OPEN_2_EQUIPMENT,OFFICE_OPEN_EQUIPMENT,OFFICE_OPEN_2,353.10,17.0,2860.122,8.100,168.242,0.100,0.200,0.000,0.700,General,2002.085,2002.085,2002.085,2002.085,2002.085,2002.085,2002.085,2002.085,2002.085,2002.085
 ElectricEquipment Internal Gains Nominal, OFFICE_PRIVATE_2_EQUIPMENT,OFFICE_OPEN_EQUIPMENT,OFFICE_PRIVATE_2,32.11,1.0,260.075,8.100,260.075,0.100,0.200,0.000,0.700,General,182.052,182.052,182.052,182.052,182.052,182.052,182.052,182.052,182.052,182.052
 ElectricEquipment Internal Gains Nominal, STORAGE_2_EQUIPMENT,STORAGE_EQUIPMENT,STORAGE_2,17.33,1.0,19.058,1.100,19.058,0.100,0.200,0.000,0.700,General,13.340,13.340,13.340,13.340,13.340,13.340,13.340,13.340,13.340,13.340
! <RoomAir Model>, Zone Name, Mixing/Mundt/UCSDDV/UCSDCV/UCSDUFI/UCSDUFE/User Defined
RoomAir Model,LOBBY_0,Mixing/Well-Stirred
RoomAir Model,CONFERENCE_0,Mixing/Well-Stirred
RoomAir Model,BREAK_ROOM_0,Mixing/Well-Stirred
RoomAir Model,MECHANICAL_0,Mixing/Well-Stirred
RoomAir Model,OFFICE_OPEN_0,Mixing/Well-Stirred
RoomAir Model,OFFICE_PRIVATE_0,Mixing/Well-Stirred
RoomAir Model,STORAGE_0,Mixing/Well-Stirred
RoomAir Model,LOBBY_1,Mixing/Well-Stirred
RoomAir Model,CONFERENCE_1,Mixing/Well-Stirred
RoomAir Model,BREAK_ROOM_1,Mixing/Well-Stirred
RoomAir Model,MECHANICAL_1,Mixing/Well-Stirred
RoomAir Model,OFFICE_OPEN_1,Mixing/Well-Stirred
RoomAir Model,OFFICE_PRIVATE_1,Mixing/Well-Stirred
RoomAir Model,STORAGE_1,Mixing/Well-Stirred
RoomAir Model,LOBBY_2,Mixing/Well-Stirred
RoomAir Model,CONFERENCE_2,Mixing/Well-Stirred
RoomAir Model,BREAK_ROOM_2,Mixing/Well-Stirred
RoomAir Model,MECHANICAL_2,Mixing/Well-Stirred
RoomAir Model,OFFICE_OPEN_2,Mixing/Well-Stirred
RoomAir Model,OFFICE_PRIVATE_2,Mixing/Well-Stirred
RoomAir Model,STORAGE_2,Mixing/Well-Stirred
! <AirflowNetwork Model:Control>, No Multizone or Distribution/Multizone with Distribution/Multizone without Distribution/Multizone with Distribution only during Fan Operation
AirflowNetwork Model:Control,NoMultizoneOrDistribution
! <Zone Volume Capacitance Multiplier>, Sensible Heat Capacity Multiplier, Moisture Capacity Multiplier, Carbon Dioxide Capacity Multiplier, Generic Contaminant Capacity Multiplier
Zone Volume Capacitance Multiplier,   1.000 ,   1.000,   1.000,   1.000
! <Environment>,Environment Name,Environment Type, Start Date, End Date, Start DayOfWeek, Duration {#days}, Source:Start DayOfWeek,  Use Daylight Saving, Use Holidays, Apply Weekend Holiday Rule,  Use Rain Values, Use Snow Values, Sky Temperature Model
! <Environment:Special Days>, Special Day Name, Special Day Type, Source, Start Date, Duration {#days}
! <Environment:Daylight Saving>, Daylight Saving Indicator, Source, Start Date, End Date
! <Environment:WarmupDays>, NumberofWarmupDays
Environment,YEAR ROUND RUN PERIOD,WeatherFileRunPeriod,01/01/2017,12/31/2017,Sunday,365,Use RunPeriod Specified Day,Yes,Yes,Yes,Yes,Yes,Clark and Allen
Environment:Daylight Saving,No,
Environment:WarmupDays, 11
! <Warmup Convergence Information>,Zone Name,Environment Type/Name,Average Warmup Temperature Difference {deltaC},Std Dev Warmup Temperature Difference {deltaC},Max Temperature Pass/Fail Convergence,Min Temperature Pass/Fail Convergence,Average Warmup Load Difference {W},Std Dev Warmup Load Difference {W},Heating Load Pass/Fail Convergence,Cooling Load Pass/Fail Convergence
 Warmup Convergence Information,LOBBY_0,RunPeriod: YEAR ROUND RUN PERIOD,7.9571827756E-002,9.6689839873E-002,Pass,Pass,0.0000000000,0.0000000000,Pass,Pass
 Warmup Convergence Information,CONFERENCE_0,RunPeriod: YEAR ROUND RUN PERIOD,8.2410601470E-002,0.1245018712,Pass,Pass,0.0000000000,0.0000000000,Pass,Pass
 Warmup Convergence Information,BREAK_ROOM_0,RunPeriod: YEAR ROUND RUN PERIOD,0.1452282341,0.1810305323,Pass,Pass,0.0000000000,0.0000000000,Pass,Pass
 Warmup Convergence Information,MECHANICAL_0,RunPeriod: YEAR ROUND RUN PERIOD,0.1063835127,0.1588128252,Pass,Pass,0.0000000000,0.0000000000,Pass,Pass
 Warmup Convergence Information,OFFICE_OPEN_0,RunPeriod: YEAR ROUND RUN PERIOD,7.1818049925E-002,8.5113263761E-002,Pass,Pass,0.0000000000,0.0000000000,Pass,Pass
 Warmup Convergence Information,OFFICE_PRIVATE_0,RunPeriod: YEAR ROUND RUN PERIOD,0.1554786569,0.1896614457,Pass,Pass,0.0000000000,0.0000000000,Pass,Pass
 Warmup Convergence Information,STORAGE_0,RunPeriod: YEAR ROUND RUN PERIOD,0.1785516723,0.2219730188,Pass,Pass,0.0000000000,0.0000000000,Pass,Pass
 Warmup Convergence Information,LOBBY_1,RunPeriod: YEAR ROUND RUN PERIOD,7.8781623963E-002,9.2446594832E-002,Pass,Pass,0.0000000000,0.0000000000,Pass,Pass
 Warmup Convergence Information,CONFERENCE_1,RunPeriod: YEAR ROUND RUN PERIOD,0.1257329121,0.1549766439,Pass,Pass,0.0000000000,0.0000000000,Pass,Pass
 Warmup Convergence Information,BREAK_ROOM_1,RunPeriod: YEAR ROUND RUN PERIOD,0.1427547123,0.1632782106,Pass,Pass,0.0000000000,0.0000000000,Pass,Pass
 Warmup Convergence Information,MECHANICAL_1,RunPeriod: YEAR ROUND RUN PERIOD,9.6159418503E-002,9.0935046726E-002,Pass,Pass,0.0000000000,0.0000000000,Pass,Pass
 Warmup Convergence Information,OFFICE_OPEN_1,RunPeriod: YEAR ROUND RUN PERIOD,5.2735901361E-002,5.9270498904E-002,Pass,Pass,0.0000000000,0.0000000000,Pass,Pass
 Warmup Convergence Information,OFFICE_PRIVATE_1,RunPeriod: YEAR ROUND RUN PERIOD,0.2065539469,0.2519232306,Pass,Pass,0.0000000000,0.0000000000,Pass,Pass
 Warmup Convergence Information,STORAGE_1,RunPeriod: YEAR ROUND RUN PERIOD,0.2162358303,0.2541586839,Pass,Pass,0.0000000000,0.0000000000,Pass,Pass
 Warmup Convergence Information,LOBBY_2,RunPeriod: YEAR ROUND RUN PERIOD,0.1238121055,0.1440971404,Pass,Pass,0.0000000000,0.0000000000,Pass,Pass
 Warmup Convergence Information,CONFERENCE_2,RunPeriod: YEAR ROUND RUN PERIOD,0.1323388985,0.1554235436,Pass,Pass,0.0000000000,0.0000000000,Pass,Pass
 Warmup Convergence Information,BREAK_ROOM_2,RunPeriod: YEAR ROUND RUN PERIOD,0.1482144764,0.1749452032,Pass,Pass,0.0000000000,0.0000000000,Pass,Pass
 Warmup Convergence Information,MECHANICAL_2,RunPeriod: YEAR ROUND RUN PERIOD,0.1454249440,0.1767623722,Pass,Pass,0.0000000000,0.0000000000,Pass,Pass
 Warmup Convergence Information,OFFICE_OPEN_2,RunPeriod: YEAR ROUND RUN PERIOD,6.1849676430E-002,7.3273180458E-002,Pass,Pass,0.0000000000,0.0000000000,Pass,Pass
 Warmup Convergence Information,OFFICE_PRIVATE_2,RunPeriod: YEAR ROUND RUN PERIOD,0.1846802261,0.2123616614,Pass,Pass,0.0000000000,0.0000000000,Pass,Pass
 Warmup Convergence Information,STORAGE_2,RunPeriod: YEAR ROUND RUN PERIOD,0.2418856768,0.2721140822,Pass,Pass,0.0000000000,0.0000000000,Pass,Pass
! <Program Control Information:Threads/Parallel Sims>, Threading Supported,Maximum Number of Threads, Env Set Threads (OMP_NUM_THREADS), EP Env Set Threads (EP_OMP_NUM_THREADS), IDF Set Threads, Number of Threads Used (Interior Radiant Exchange), Number Nominal Surfaces, Number Parallel Sims
Program Control:Threads/Parallel Sims, No,1, N/A, N/A, N/A, N/A, N/A, N/A
End of Data
