Program Version,EnergyPlus, Version 24.2.0-94a887817b, YMD=2025.11.01 00:16
! <Version>, Version ID
 Version, 24.2.0
! <Timesteps per Hour>, #TimeSteps, Minutes per TimeStep {minutes}
 Timesteps per Hour,  4, 15
! <System Convergence Limits>, Minimum System TimeStep {minutes}, Max HVAC Iterations, Minimum Plant Iterations, Maximum Plant Iterations
 System Convergence Limits, 1, 20, 2, 8
! <Simulation Control>, Do Zone Sizing, Do System Sizing, Do Plant Sizing, Do Design Days, Do Weather Simulation, Do HVAC Sizing Simulation
 Simulation Control, No, No, No, No, Yes, No
! <Performance Precision Tradeoffs>, Use Coil Direct Simulation, Zone Radiant Exchange Algorithm, Override Mode, Number of Timestep In Hour, Force Euler Method, Minimum Number of Warmup Days, Force Suppress All Begin Environment Resets, Minimum System Timestep, MaxZoneTempDiff, MaxAllowedDelTemp
 Performance Precision Tradeoffs, No, ScriptF, Normal, 4, No, 1, No, 1.0, 0.300, 2.0000E-003
! <Output Reporting Tolerances>, Tolerance for Time Heating Setpoint Not Met, Tolerance for Zone Cooling Setpoint Not Met Time
 Output Reporting Tolerances, 0.200, 0.200, 
! <Site:GroundTemperature:BuildingSurface>,Jan{C},Feb{C},Mar{C},Apr{C},May{C},Jun{C},Jul{C},Aug{C},Sep{C},Oct{C},Nov{C},Dec{C}
 Site:GroundTemperature:BuildingSurface,  20.00,  20.00,  20.00,  20.00,  20.00,  20.00,  20.00,  20.00,  20.00,  20.00,  20.00,  20.00
! <Site:GroundTemperature:FCfactorMethod>,Jan{C},Feb{C},Mar{C},Apr{C},May{C},Jun{C},Jul{C},Aug{C},Sep{C},Oct{C},Nov{C},Dec{C}
 Site:GroundTemperature:FCfactorMethod,  -1.89,  -3.06,  -0.99,   2.23,  10.68,  17.20,  21.60,  22.94,  20.66,  15.60,   8.83,   2.56
! <Site:GroundTemperature:Shallow>,Jan{C},Feb{C},Mar{C},Apr{C},May{C},Jun{C},Jul{C},Aug{C},Sep{C},Oct{C},Nov{C},Dec{C}
 Site:GroundTemperature:Shallow,  13.00,  13.00,  13.00,  13.00,  13.00,  13.00,  13.00,  13.00,  13.00,  13.00,  13.00,  13.00
! <Site:GroundTemperature:Deep>,Jan{C},Feb{C},Mar{C},Apr{C},May{C},Jun{C},Jul{C},Aug{C},Sep{C},Oct{C},Nov{C},Dec{C}
 Site:GroundTemperature:Deep,  16.00,  16.00,  16.00,  16.00,  16.00,  16.00,  16.00,  16.00,  16.00,  16.00,  16.00,  16.00
! <Site:GroundReflectance>,Jan{dimensionless},Feb{dimensionless},Mar{dimensionless},Apr{dimensionless},May{dimensionless},Jun{dimensionless},Jul{dimensionless},Aug{dimensionless},Sep{dimensionless},Oct{dimensionless},Nov{dimensionless},Dec{dimensionless}
 Site:GroundReflectance,  0.20,  0.20,  0.20,  0.20,  0.20,  0.20,  0.20,  0.20,  0.20,  0.20,  0.20,  0.20
! <Site:GroundReflectance:SnowModifier>, Normal, Daylighting {dimensionless}
 Site:GroundReflectance:SnowModifier,   1.000,   1.000
! <Site:GroundReflectance:Snow>,Jan{dimensionless},Feb{dimensionless},Mar{dimensionless},Apr{dimensionless},May{dimensionless},Jun{dimensionless},Jul{dimensionless},Aug{dimensionless},Sep{dimensionless},Oct{dimensionless},Nov{dimensionless},Dec{dimensionless}
 Site:GroundReflectance:Snow,  0.20,  0.20,  0.20,  0.20,  0.20,  0.20,  0.20,  0.20,  0.20,  0.20,  0.20,  0.20
! <Site:GroundReflectance:Snow:Daylighting>,Jan{dimensionless},Feb{dimensionless},Mar{dimensionless},Apr{dimensionless},May{dimensionless},Jun{dimensionless},Jul{dimensionless},Aug{dimensionless},Sep{dimensionless},Oct{dimensionless},Nov{dimensionless},Dec{dimensionless}
 Site:GroundReflectance:Snow:Daylighting,  0.20,  0.20,  0.20,  0.20,  0.20,  0.20,  0.20,  0.20,  0.20,  0.20,  0.20,  0.20
! <Environment:Weather Station>,Wind Sensor Height Above Ground {m},Wind Speed Profile Exponent {},Wind Speed Profile Boundary Layer Thickness {m},Air Temperature Sensor Height Above Ground {m},Wind Speed Modifier Coefficient-Internal,Temperature Modifier Coefficient-Internal
Environment:Weather Station,10.000,0.140,270.000,1.500,1.586,9.750E-003
! <Site:Location>, Location Name, Latitude {N+/S- Deg}, Longitude {E+/W- Deg},  Time Zone Number {GMT+/-}, Elevation {m},  Standard Pressure at Elevation {Pa}, Standard RhoAir at Elevation
Site:Location,Chicago Ohare Intl Ap IL USA TMY3 WMO#=725300,41.98,-87.92,-6.00,201.00,98934,1.1759
! <Site Water Mains Temperature Information>,Calculation Method{},Water Mains Temperature Schedule Name{},Annual Average Outdoor Air Temperature{C},Maximum Difference In Monthly Average Outdoor Air Temperatures{deltaC},Fixed Default Water Mains Temperature{C}
Site Water Mains Temperature Information,FixedDefault,NA,NA,NA,10.0
! <Building Information>, Building Name,North Axis {deg},Terrain,  Loads Convergence Tolerance Value,Temperature Convergence Tolerance Value,  Solar Distribution,Maximum Number of Warmup Days,Minimum Number of Warmup Days
 Building Information,Professional Building,0.000,Suburbs,4.00000E-002,0.20000,FullInteriorAndExterior,15,6
! <Inside Convection Algorithm>, Algorithm {Simple | TARP | CeilingDiffuser | AdaptiveConvectionAlgorithm}
Inside Convection Algorithm,TARP
! <Outside Convection Algorithm>, Algorithm {SimpleCombined | TARP | MoWitt | DOE-2 | AdaptiveConvectionAlgorithm}
Outside Convection Algorithm,DOE-2
! <Sky Radiance Distribution>, Value {Anisotropic}
Sky Radiance Distribution,Anisotropic
! <Zone Air Solution Algorithm>, Algorithm {ThirdOrderBackwardDifference | AnalyticalSolution | EulerMethod}, Space Heat Balance Sizing, Space Heat Balance Simulation
 Zone Air Solution Algorithm, ThirdOrderBackwardDifference, No, No
! <Zone Air Carbon Dioxide Balance Simulation>, Simulation {Yes/No}, Carbon Dioxide Concentration
 Zone Air Carbon Dioxide Balance Simulation, No,N/A
! <Zone Air Generic Contaminant Balance Simulation>, Simulation {Yes/No}, Generic Contaminant Concentration
 Zone Air Generic Contaminant Balance Simulation, No,N/A
! <Zone Air Mass Flow Balance Simulation>, Enforce Mass Balance, Adjust Zone Mixing and Return {AdjustMixingOnly | AdjustReturnOnly | AdjustMixingThenReturn | AdjustReturnThenMixing | None}, Adjust Zone Infiltration {AddInfiltration | AdjustInfiltration | None}, Infiltration Zones {MixingSourceZonesOnly | AllZones}
 Zone Air Mass Flow Balance Simulation, No,N/A,N/A,N/A
! <HVACSystemRootFindingAlgorithm>, Value {RegulaFalsi | Bisection | BisectionThenRegulaFalsi | RegulaFalsiThenBisection}
 HVACSystemRootFindingAlgorithm, RegulaFalsi
! <Environment:Site Atmospheric Variation>,Wind Speed Profile Exponent {},Wind Speed Profile Boundary Layer Thickness {m},Air Temperature Gradient Coefficient {K/m}
Environment:Site Atmospheric Variation,0.220,370.000,6.500000E-003
! <Shadowing/Sun Position Calculations Annual Simulations>, Shading Calculation Method, Shading Calculation Update Frequency Method, Shading Calculation Update Frequency {days}, Maximum Figures in Shadow Overlap Calculations {}, Polygon Clipping Algorithm, Pixel Counting Resolution, Sky Diffuse Modeling Algorithm, Output External Shading Calculation Results, Disable Self-Shading Within Shading Zone Groups, Disable Self-Shading From Shading Zone Groups to Other Zones
Shadowing/Sun Position Calculations Annual Simulations,PolygonClipping,Periodic,20,15000,SutherlandHodgman,512,SimpleSkyDiffuseModeling,No,No,No
! <Surface Geometry>,Starting Corner,Vertex Input Direction,Coordinate System,Daylight Reference Point Coordinate System,Rectangular (Simple) Surface Coordinate System
 Surface Geometry,UpperLeftCorner,Counterclockwise,RelativeCoordinateSystem,RelativeCoordinateSystem,RelativeToZoneOrigin
! <Surface Heat Transfer Algorithm>, Value {CTF - ConductionTransferFunction | EMPD - MoisturePenetrationDepthConductionTransferFunction | CondFD - ConductionFiniteDifference | HAMT - CombinedHeatAndMoistureFiniteElement} - Description,Inside Surface Max Temperature Limit{C}, Surface Convection Coefficient Lower Limit {W/m2-K}, Surface Convection Coefficient Upper Limit {W/m2-K}
Surface Heat Transfer Algorithm, CTF - ConductionTransferFunction,200,0.10,1000.0
! <Shading Summary>, Number of Fixed Detached Shades, Number of Building Detached Shades, Number of Attached Shades
 Shading Summary,0,0,0
! <Zone Summary>, Number of Zones, Number of Zone Surfaces, Number of SubSurfaces
 Zone Summary,19,209,76
! <Zone Information>,Zone Name,North Axis {deg},Origin X-Coordinate {m},Origin Y-Coordinate {m},Origin Z-Coordinate {m},Centroid X-Coordinate {m},Centroid Y-Coordinate {m},Centroid Z-Coordinate {m},Type,Zone Multiplier,Zone List Multiplier,Minimum X {m},Maximum X {m},Minimum Y {m},Maximum Y {m},Minimum Z {m},Maximum Z {m},Ceiling Height {m},Volume {m3},Zone Inside Convection Algorithm {Simple-Detailed-CeilingDiffuser-TrombeWall},Zone Outside Convection Algorithm {Simple-Detailed-Tarp-MoWitt-DOE-2-BLAST}, Floor Area {m2},Exterior Gross Wall Area {m2},Exterior Net Wall Area {m2},Exterior Window Area {m2}, Number of Surfaces, Number of SubSurfaces, Number of Shading SubSurfaces,  Part of Total Building Area
 Zone Information, LOBBY_0,0.0,0.00,0.00,0.00,-10.63,-90.12,1.50,1,1,1,-14.55,-6.70,-95.11,-85.12,0.00,3.00,3.00,229.72,TARP,DOE-2,76.57,105.78,73.95,31.84,6,4,0,Yes
 Zone Information, CONFERENCE_0,0.0,0.00,0.00,0.00,-42.38,-8.21,1.50,1,1,1,-44.95,-39.81,-11.99,-4.44,0.00,3.00,3.00,112.74,TARP,DOE-2,37.58,74.95,52.40,22.56,6,4,0,Yes
 Zone Information, STORAGE_0,0.0,0.00,0.00,0.00,-16.45,-16.39,1.50,1,1,1,-18.26,-14.65,-18.92,-13.87,0.00,3.00,3.00,52.14,TARP,DOE-2,17.38,50.76,35.49,15.28,6,4,0,Yes
 Zone Information, MECHANICAL_1,0.0,0.00,0.00,0.00,-82.78,-26.28,4.50,1,1,1,-85.42,-80.15,-30.76,-21.80,3.00,6.00,3.00,137.24,TARP,DOE-2,45.75,84.13,58.81,25.32,6,4,0,Yes
 Zone Information, OFFICE_OPEN_1,0.0,0.00,0.00,0.00,-65.26,-97.21,4.50,1,1,1,-72.84,-57.68,-107.84,-86.59,3.00,6.00,3.00,955.34,TARP,DOE-2,318.45,217.23,151.85,65.38,6,4,0,Yes
 Zone Information, OFFICE_PRIVATE_1,0.0,0.00,0.00,0.00,-50.39,-108.41,4.50,1,1,1,-52.81,-47.98,-112.24,-104.58,3.00,6.00,3.00,107.37,TARP,DOE-2,35.79,73.77,51.57,22.20,6,4,0,Yes
 Zone Information, STORAGE_1,0.0,0.00,0.00,0.00,-9.81,-86.75,4.50,1,1,1,-12.28,-7.35,-90.61,-82.90,3.00,6.00,3.00,110.29,TARP,DOE-2,36.76,74.66,52.19,22.47,6,4,0,Yes
 Zone Information, LOBBY_2,0.0,0.00,0.00,0.00,-78.41,-10.55,7.50,1,1,1,-82.28,-74.54,-14.43,-6.67,6.00,9.00,3.00,175.47,TARP,DOE-2,58.49,91.77,64.15,27.62,6,4,0,Yes
 Zone Information, CONFERENCE_2,0.0,0.00,0.00,0.00,-79.14,-105.99,7.50,1,1,1,-83.30,-74.98,-110.24,-101.74,6.00,9.00,3.00,207.19,TARP,DOE-2,69.06,99.73,69.71,30.02,6,4,0,Yes
 Zone Information, BREAK_ROOM_2,0.0,0.00,0.00,0.00,-8.32,-111.30,7.50,1,1,1,-11.54,-5.11,-116.91,-105.68,6.00,9.00,3.00,211.46,TARP,DOE-2,70.49,104.76,73.23,31.53,6,4,0,Yes
 Zone Information, OFFICE_OPEN_2,0.0,0.00,0.00,0.00,-48.10,-98.41,7.50,1,1,1,-57.49,-38.72,-110.06,-86.75,6.00,9.00,3.00,1299.72,TARP,DOE-2,433.24,251.25,175.63,75.62,6,4,0,Yes
 Zone Information, LOBBY_3,0.0,0.00,0.00,0.00,-23.21,-95.46,10.50,1,1,1,-26.54,-19.89,-100.41,-90.50,9.00,12.00,3.00,193.00,TARP,DOE-2,64.33,98.22,68.66,29.56,6,4,0,Yes
 Zone Information, CONFERENCE_3,0.0,0.00,0.00,0.00,-85.52,-83.42,10.50,1,1,1,-89.32,-81.72,-89.29,-77.54,9.00,12.00,3.00,262.16,TARP,DOE-2,87.39,114.91,80.32,34.58,6,4,0,Yes
 Zone Information, MECHANICAL_3,0.0,0.00,0.00,0.00,-85.65,-14.63,10.50,1,1,1,-88.92,-82.39,-20.37,-8.88,9.00,12.00,3.00,219.84,TARP,DOE-2,73.28,106.96,74.77,32.19,6,4,0,Yes
 Zone Information, STORAGE_3,0.0,0.00,0.00,0.00,-43.37,-97.00,10.50,1,1,1,-46.12,-40.62,-99.89,-94.11,9.00,12.00,3.00,92.07,TARP,DOE-2,30.69,66.50,46.48,20.01,6,4,0,Yes
 Zone Information, LOBBY_4,0.0,0.00,0.00,0.00,-13.97,-108.74,13.50,1,1,1,-19.63,-8.32,-116.33,-101.16,12.00,15.00,3.00,507.09,TARP,DOE-2,169.03,157.72,110.25,47.47,6,4,0,Yes
 Zone Information, CONFERENCE_4,0.0,0.00,0.00,0.00,-2.86,-107.43,13.50,1,1,1,-6.61,0.88,-112.22,-102.64,12.00,15.00,3.00,210.05,TARP,DOE-2,70.02,101.20,70.74,30.46,6,4,0,Yes
 Zone Information, MECHANICAL_4,0.0,0.00,0.00,0.00,-73.34,-69.19,13.50,1,1,1,-76.05,-70.63,-72.61,-65.78,12.00,15.00,3.00,107.34,TARP,DOE-2,35.78,72.28,50.53,21.75,6,4,0,Yes
 Zone Information, OFFICE_PRIVATE_4,0.0,0.00,0.00,0.00,-12.39,-70.88,13.50,1,1,1,-15.29,-9.49,-75.05,-66.71,12.00,15.00,3.00,140.72,TARP,DOE-2,46.91,83.59,58.43,25.16,6,4,0,Yes
! <Zone Internal Gains Nominal>,Zone Name, Floor Area {m2},# Occupants,Area per Occupant {m2/person},Occupant per Area {person/m2},Interior Lighting {W/m2},Electric Load {W/m2},Gas Load {W/m2},Other Load {W/m2},Hot Water Eq {W/m2},Steam Equipment {W/m2},Sum Loads per Area {W/m2},Outdoor Controlled Baseboard Heat
 Zone Internal Gains Nominal, LOBBY_0,76.57,3.0,25.524,3.918E-002,12.900,3.200,0.000,0.000,0.000,0.000,16.100,No
 Zone Internal Gains Nominal, CONFERENCE_0,37.58,7.0,5.368,0.186,10.800,8.100,0.000,0.000,0.000,0.000,18.900,No
 Zone Internal Gains Nominal, STORAGE_0,17.38,1.0,17.379,5.754E-002,5.400,1.100,0.000,0.000,0.000,0.000,6.500,No
 Zone Internal Gains Nominal, MECHANICAL_1,45.75,1.0,45.748,2.186E-002,5.400,0.000,0.000,0.000,0.000,0.000,5.400,No
 Zone Internal Gains Nominal, OFFICE_OPEN_1,318.45,15.0,21.230,4.710E-002,10.800,8.100,0.000,0.000,0.000,0.000,18.900,No
 Zone Internal Gains Nominal, OFFICE_PRIVATE_1,35.79,1.0,35.788,2.794E-002,10.800,8.100,0.000,0.000,0.000,0.000,18.900,No
 Zone Internal Gains Nominal, STORAGE_1,36.76,1.0,36.764,2.720E-002,5.400,1.100,0.000,0.000,0.000,0.000,6.500,No
 Zone Internal Gains Nominal, LOBBY_2,58.49,2.0,29.244,3.419E-002,12.900,3.200,0.000,0.000,0.000,0.000,16.100,No
 Zone Internal Gains Nominal, CONFERENCE_2,69.06,13.0,5.313,0.188,10.800,8.100,0.000,0.000,0.000,0.000,18.900,No
 Zone Internal Gains Nominal, BREAK_ROOM_2,70.49,7.0,10.069,9.931E-002,8.100,15.000,0.000,0.000,0.000,0.000,23.100,No
 Zone Internal Gains Nominal, OFFICE_OPEN_2,433.24,21.0,20.631,4.847E-002,10.800,8.100,0.000,0.000,0.000,0.000,18.900,No
 Zone Internal Gains Nominal, LOBBY_3,64.33,3.0,21.444,4.663E-002,12.900,3.200,0.000,0.000,0.000,0.000,16.100,No
 Zone Internal Gains Nominal, CONFERENCE_3,87.39,17.0,5.140,0.195,10.800,8.100,0.000,0.000,0.000,0.000,18.900,No
 Zone Internal Gains Nominal, MECHANICAL_3,73.28,1.0,73.279,1.365E-002,5.400,0.000,0.000,0.000,0.000,0.000,5.400,No
 Zone Internal Gains Nominal, STORAGE_3,30.69,1.0,30.688,3.259E-002,5.400,1.100,0.000,0.000,0.000,0.000,6.500,No
 Zone Internal Gains Nominal, LOBBY_4,169.03,8.0,21.129,4.733E-002,12.900,3.200,0.000,0.000,0.000,0.000,16.100,No
 Zone Internal Gains Nominal, CONFERENCE_4,70.02,14.0,5.001,0.200,10.800,8.100,0.000,0.000,0.000,0.000,18.900,No
 Zone Internal Gains Nominal, MECHANICAL_4,35.78,1.0,35.780,2.795E-002,5.400,0.000,0.000,0.000,0.000,0.000,5.400,No
 Zone Internal Gains Nominal, OFFICE_PRIVATE_4,46.91,2.0,23.453,4.264E-002,10.800,8.100,0.000,0.000,0.000,0.000,18.900,No
! <People Internal Gains Nominal>,Name,Schedule Name,Zone Name,Zone Floor Area {m2},# Zone Occupants,Number of People {},People/Floor Area {person/m2},Floor Area per person {m2/person},Fraction Radiant,Fraction Convected,Sensible Fraction Calculation,Activity level,ASHRAE 55 Warnings,Carbon Dioxide Generation Rate,Minimum Number of People for All Day Types,Maximum Number of People for All Day Types,Minimum Number of People for Weekdays, Maximum Number of People for Weekdays, Minimum Number of People for Weekends/Holidays, Maximum Number of People for Weekends /Holidays,Minimum Number of People for Summer Design Days, Maximum Number of People for Summer Design Days,Minimum Number of People for Winter Design Days, Maximum Number of People for Winter Design Days
 People Internal Gains Nominal, LOBBY_0_PEOPLE,LOBBY_OCCUPANCY,LOBBY_0,76.57,3.0,3.0,3.918E-002,25.524,0.300,0.700,0.100,LOBBY_ACTIVITY,No,3.8200E-008,2.4,2.4,2.4,2.4,2.4,2.4,2.4,2.4,2.4,2.4,
 People Internal Gains Nominal, CONFERENCE_0_PEOPLE,CONFERENCE_OCCUPANCY,CONFERENCE_0,37.58,7.0,7.0,0.186,5.368,0.300,0.700,0.100,CONFERENCE_ACTIVITY,No,3.8200E-008,5.6,5.6,5.6,5.6,5.6,5.6,5.6,5.6,5.6,5.6,
 People Internal Gains Nominal, STORAGE_0_PEOPLE,STORAGE_OCCUPANCY,STORAGE_0,17.38,1.0,1.0,5.754E-002,17.379,0.300,0.700,0.100,STORAGE_ACTIVITY,No,3.8200E-008,0.8,0.8,0.8,0.8,0.8,0.8,0.8,0.8,0.8,0.8,
 People Internal Gains Nominal, MECHANICAL_1_PEOPLE,MECHANICAL_OCCUPANCY,MECHANICAL_1,45.75,1.0,1.0,2.186E-002,45.748,0.300,0.700,0.100,MECHANICAL_ACTIVITY,No,3.8200E-008,0.8,0.8,0.8,0.8,0.8,0.8,0.8,0.8,0.8,0.8,
 People Internal Gains Nominal, OFFICE_OPEN_1_PEOPLE,OFFICE_OPEN_OCCUPANCY,OFFICE_OPEN_1,318.45,15.0,15.0,4.710E-002,21.230,0.300,0.700,0.100,OFFICE_OPEN_ACTIVITY,No,3.8200E-008,12.0,12.0,12.0,12.0,12.0,12.0,12.0,12.0,12.0,12.0,
 People Internal Gains Nominal, OFFICE_PRIVATE_1_PEOPLE,OFFICE_OPEN_OCCUPANCY,OFFICE_PRIVATE_1,35.79,1.0,1.0,2.794E-002,35.788,0.300,0.700,0.100,OFFICE_OPEN_ACTIVITY,No,3.8200E-008,0.8,0.8,0.8,0.8,0.8,0.8,0.8,0.8,0.8,0.8,
 People Internal Gains Nominal, STORAGE_1_PEOPLE,STORAGE_OCCUPANCY,STORAGE_1,36.76,1.0,1.0,2.720E-002,36.764,0.300,0.700,0.100,STORAGE_ACTIVITY,No,3.8200E-008,0.8,0.8,0.8,0.8,0.8,0.8,0.8,0.8,0.8,0.8,
 People Internal Gains Nominal, LOBBY_2_PEOPLE,LOBBY_OCCUPANCY,LOBBY_2,58.49,2.0,2.0,3.419E-002,29.244,0.300,0.700,0.100,LOBBY_ACTIVITY,No,3.8200E-008,1.6,1.6,1.6,1.6,1.6,1.6,1.6,1.6,1.6,1.6,
 People Internal Gains Nominal, CONFERENCE_2_PEOPLE,CONFERENCE_OCCUPANCY,CONFERENCE_2,69.06,13.0,13.0,0.188,5.313,0.300,0.700,0.100,CONFERENCE_ACTIVITY,No,3.8200E-008,10.4,10.4,10.4,10.4,10.4,10.4,10.4,10.4,10.4,10.4,
 People Internal Gains Nominal, BREAK_ROOM_2_PEOPLE,BREAK_ROOM_OCCUPANCY,BREAK_ROOM_2,70.49,7.0,7.0,9.931E-002,10.069,0.300,0.700,0.100,BREAK_ROOM_ACTIVITY,No,3.8200E-008,5.6,5.6,5.6,5.6,5.6,5.6,5.6,5.6,5.6,5.6,
 People Internal Gains Nominal, OFFICE_OPEN_2_PEOPLE,OFFICE_OPEN_OCCUPANCY,OFFICE_OPEN_2,433.24,21.0,21.0,4.847E-002,20.631,0.300,0.700,0.100,OFFICE_OPEN_ACTIVITY,No,3.8200E-008,16.8,16.8,16.8,16.8,16.8,16.8,16.8,16.8,16.8,16.8,
 People Internal Gains Nominal, LOBBY_3_PEOPLE,LOBBY_OCCUPANCY,LOBBY_3,64.33,3.0,3.0,4.663E-002,21.444,0.300,0.700,0.100,LOBBY_ACTIVITY,No,3.8200E-008,2.4,2.4,2.4,2.4,2.4,2.4,2.4,2.4,2.4,2.4,
 People Internal Gains Nominal, CONFERENCE_3_PEOPLE,CONFERENCE_OCCUPANCY,CONFERENCE_3,87.39,17.0,17.0,0.195,5.140,0.300,0.700,0.100,CONFERENCE_ACTIVITY,No,3.8200E-008,13.6,13.6,13.6,13.6,13.6,13.6,13.6,13.6,13.6,13.6,
 People Internal Gains Nominal, MECHANICAL_3_PEOPLE,MECHANICAL_OCCUPANCY,MECHANICAL_3,73.28,1.0,1.0,1.365E-002,73.279,0.300,0.700,0.100,MECHANICAL_ACTIVITY,No,3.8200E-008,0.8,0.8,0.8,0.8,0.8,0.8,0.8,0.8,0.8,0.8,
 People Internal Gains Nominal, STORAGE_3_PEOPLE,STORAGE_OCCUPANCY,STORAGE_3,30.69,1.0,1.0,3.259E-002,30.688,0.300,0.700,0.100,STORAGE_ACTIVITY,No,3.8200E-008,0.8,0.8,0.8,0.8,0.8,0.8,0.8,0.8,0.8,0.8,
 People Internal Gains Nominal, LOBBY_4_PEOPLE,LOBBY_OCCUPANCY,LOBBY_4,169.03,8.0,8.0,4.733E-002,21.129,0.300,0.700,0.100,LOBBY_ACTIVITY,No,3.8200E-008,6.4,6.4,6.4,6.4,6.4,6.4,6.4,6.4,6.4,6.4,
 People Internal Gains Nominal, CONFERENCE_4_PEOPLE,CONFERENCE_OCCUPANCY,CONFERENCE_4,70.02,14.0,14.0,0.200,5.001,0.300,0.700,0.100,CONFERENCE_ACTIVITY,No,3.8200E-008,11.2,11.2,11.2,11.2,11.2,11.2,11.2,11.2,11.2,11.2,
 People Internal Gains Nominal, MECHANICAL_4_PEOPLE,MECHANICAL_OCCUPANCY,MECHANICAL_4,35.78,1.0,1.0,2.795E-002,35.780,0.300,0.700,0.100,MECHANICAL_ACTIVITY,No,3.8200E-008,0.8,0.8,0.8,0.8,0.8,0.8,0.8,0.8,0.8,0.8,
 People Internal Gains Nominal, OFFICE_PRIVATE_4_PEOPLE,OFFICE_OPEN_OCCUPANCY,OFFICE_PRIVATE_4,46.91,2.0,2.0,4.264E-002,23.453,0.300,0.700,0.100,OFFICE_OPEN_ACTIVITY,No,3.8200E-008,1.6,1.6,1.6,1.6,1.6,1.6,1.6,1.6,1.6,1.6,
! <Lights Internal Gains Nominal>,Name,Schedule Name,Zone Name,Zone Floor Area {m2},# Zone Occupants,Lighting Level {W},Lights/Floor Area {W/m2},Lights per person {W/person},Fraction Return Air,Fraction Radiant,Fraction Short Wave,Fraction Convected,Fraction Replaceable,End-Use, Minimum Lighting Level for All Day Types {W},Maximum Lighting Level for All Day Types {W},Minimum Lighting Level for Weekdays {W}, Maximum Lighting Level for Weekdays {W},Minimum Lighting Level for Weekends/Holidays {W}, Maximum Lighting Level for Weekends /Holidays {W},Minimum Lighting Level for Summer Design Days {W}, Maximum Lighting Level for Summer Design Days {W},Minimum Lighting Level for Winter Design Days {W}, Maximum Lighting Level for Winter Design Days {W}
 Lights Internal Gains Nominal, LOBBY_0_LIGHTS,LOBBY_LIGHTING,LOBBY_0,76.57,3.0,987.784,12.900,329.261,0.000,0.300,0.200,0.500,1.000,General,987.784,987.784,987.784,987.8,987.784,987.784,987.784,987.784,987.784,987.784
 Lights Internal Gains Nominal, CONFERENCE_0_LIGHTS,CONFERENCE_LIGHTING,CONFERENCE_0,37.58,7.0,405.849,10.800,57.978,0.000,0.300,0.200,0.500,1.000,General,405.849,405.849,405.849,405.8,405.849,405.849,405.849,405.849,405.849,405.849
 Lights Internal Gains Nominal, STORAGE_0_LIGHTS,STORAGE_LIGHTING,STORAGE_0,17.38,1.0,93.849,5.400,93.849,0.000,0.300,0.200,0.500,1.000,General,93.849,93.849,93.849,93.8,93.849,93.849,93.849,93.849,93.849,93.849
 Lights Internal Gains Nominal, MECHANICAL_1_LIGHTS,MECHANICAL_LIGHTING,MECHANICAL_1,45.75,1.0,247.039,5.400,247.039,0.000,0.300,0.200,0.500,1.000,General,247.039,247.039,247.039,247.0,247.039,247.039,247.039,247.039,247.039,247.039
 Lights Internal Gains Nominal, OFFICE_OPEN_1_LIGHTS,OFFICE_OPEN_LIGHTING,OFFICE_OPEN_1,318.45,15.0,3439.221,10.800,229.281,0.000,0.300,0.200,0.500,1.000,General,3439.221,3439.221,3439.221,3439.2,3439.221,3439.221,3439.221,3439.221,3439.221,3439.221
 Lights Internal Gains Nominal, OFFICE_PRIVATE_1_LIGHTS,OFFICE_OPEN_LIGHTING,OFFICE_PRIVATE_1,35.79,1.0,386.516,10.800,386.516,0.000,0.300,0.200,0.500,1.000,General,386.516,386.516,386.516,386.5,386.516,386.516,386.516,386.516,386.516,386.516
 Lights Internal Gains Nominal, STORAGE_1_LIGHTS,STORAGE_LIGHTING,STORAGE_1,36.76,1.0,198.528,5.400,198.528,0.000,0.300,0.200,0.500,1.000,General,198.528,198.528,198.528,198.5,198.528,198.528,198.528,198.528,198.528,198.528
 Lights Internal Gains Nominal, LOBBY_2_LIGHTS,LOBBY_LIGHTING,LOBBY_2,58.49,2.0,754.504,12.900,377.252,0.000,0.300,0.200,0.500,1.000,General,754.504,754.504,754.504,754.5,754.504,754.504,754.504,754.504,754.504,754.504
 Lights Internal Gains Nominal, CONFERENCE_2_LIGHTS,CONFERENCE_LIGHTING,CONFERENCE_2,69.06,13.0,745.886,10.800,57.376,0.000,0.300,0.200,0.500,1.000,General,745.886,745.886,745.886,745.9,745.886,745.886,745.886,745.886,745.886,745.886
 Lights Internal Gains Nominal, BREAK_ROOM_2_LIGHTS,BREAK_ROOM_LIGHTING,BREAK_ROOM_2,70.49,7.0,570.930,8.100,81.561,0.000,0.300,0.200,0.500,1.000,General,570.930,570.930,570.930,570.9,570.930,570.930,570.930,570.930,570.930,570.930
 Lights Internal Gains Nominal, OFFICE_OPEN_2_LIGHTS,OFFICE_OPEN_LIGHTING,OFFICE_OPEN_2,433.24,21.0,4679.010,10.800,222.810,0.000,0.300,0.200,0.500,1.000,General,4679.010,4679.010,4679.010,4679.0,4679.010,4679.010,4679.010,4679.010,4679.010,4679.010
 Lights Internal Gains Nominal, LOBBY_3_LIGHTS,LOBBY_LIGHTING,LOBBY_3,64.33,3.0,829.892,12.900,276.631,0.000,0.300,0.200,0.500,1.000,General,829.892,829.892,829.892,829.9,829.892,829.892,829.892,829.892,829.892,829.892
 Lights Internal Gains Nominal, CONFERENCE_3_LIGHTS,CONFERENCE_LIGHTING,CONFERENCE_3,87.39,17.0,943.784,10.800,55.517,0.000,0.300,0.200,0.500,1.000,General,943.784,943.784,943.784,943.8,943.784,943.784,943.784,943.784,943.784,943.784
 Lights Internal Gains Nominal, MECHANICAL_3_LIGHTS,MECHANICAL_LIGHTING,MECHANICAL_3,73.28,1.0,395.707,5.400,395.707,0.000,0.300,0.200,0.500,1.000,General,395.707,395.707,395.707,395.7,395.707,395.707,395.707,395.707,395.707,395.707
 Lights Internal Gains Nominal, STORAGE_3_LIGHTS,STORAGE_LIGHTING,STORAGE_3,30.69,1.0,165.718,5.400,165.718,0.000,0.300,0.200,0.500,1.000,General,165.718,165.718,165.718,165.7,165.718,165.718,165.718,165.718,165.718,165.718
 Lights Internal Gains Nominal, LOBBY_4_LIGHTS,LOBBY_LIGHTING,LOBBY_4,169.03,8.0,2180.496,12.900,272.562,0.000,0.300,0.200,0.500,1.000,General,2180.496,2180.496,2180.496,2180.5,2180.496,2180.496,2180.496,2180.496,2180.496,2180.496
 Lights Internal Gains Nominal, CONFERENCE_4_LIGHTS,CONFERENCE_LIGHTING,CONFERENCE_4,70.02,14.0,756.190,10.800,54.014,0.000,0.300,0.200,0.500,1.000,General,756.190,756.190,756.190,756.2,756.190,756.190,756.190,756.190,756.190,756.190
 Lights Internal Gains Nominal, MECHANICAL_4_LIGHTS,MECHANICAL_LIGHTING,MECHANICAL_4,35.78,1.0,193.210,5.400,193.210,0.000,0.300,0.200,0.500,1.000,General,193.210,193.210,193.210,193.2,193.210,193.210,193.210,193.210,193.210,193.210
 Lights Internal Gains Nominal, OFFICE_PRIVATE_4_LIGHTS,OFFICE_OPEN_LIGHTING,OFFICE_PRIVATE_4,46.91,2.0,506.585,10.800,253.293,0.000,0.300,0.200,0.500,1.000,General,506.585,506.585,506.585,506.6,506.585,506.585,506.585,506.585,506.585,506.585
! <ElectricEquipment Internal Gains Nominal>,Name,Schedule Name,Zone Name,Zone Floor Area {m2},# Zone Occupants,Equipment Level {W},Equipment/Floor Area {W/m2},Equipment per person {W/person},Fraction Latent,Fraction Radiant,Fraction Lost,Fraction Convected,End-Use SubCategory,Minimum Equipment Level for All Day Types {W},Maximum Equipment Level for All Day Types {W},Minimum Equipment Level for Weekdays {W}, Maximum Equipment Level for Weekdays {W},Minimum Equipment Level for Weekends/Holidays {W}, Maximum Equipment Level for Weekends /Holidays {W},Minimum Equipment Level for Summer Design Days {W}, Maximum Equipment Level for Summer Design Days {W},Minimum Equipment Level for Winter Design Days {W}, Maximum Equipment Level for Winter Design Days {W}
 ElectricEquipment Internal Gains Nominal, LOBBY_0_EQUIPMENT,LOBBY_EQUIPMENT,LOBBY_0,76.57,3.0,245.032,3.200,81.677,0.100,0.200,0.000,0.700,General,171.522,171.522,171.522,171.522,171.522,171.522,171.522,171.522,171.522,171.522
 ElectricEquipment Internal Gains Nominal, CONFERENCE_0_EQUIPMENT,CONFERENCE_EQUIPMENT,CONFERENCE_0,37.58,7.0,304.387,8.100,43.484,0.100,0.200,0.000,0.700,General,213.071,213.071,213.071,213.071,213.071,213.071,213.071,213.071,213.071,213.071
 ElectricEquipment Internal Gains Nominal, STORAGE_0_EQUIPMENT,STORAGE_EQUIPMENT,STORAGE_0,17.38,1.0,19.117,1.100,19.117,0.100,0.200,0.000,0.700,General,13.382,13.382,13.382,13.382,13.382,13.382,13.382,13.382,13.382,13.382
 ElectricEquipment Internal Gains Nominal, MECHANICAL_1_EQUIPMENT,MECHANICAL_EQUIPMENT,MECHANICAL_1,45.75,1.0,0.000,0.000,0.000,0.100,0.200,0.000,0.700,General,0.000,0.000,0.000,0.000,0.000,0.000,0.000,0.000,0.000,0.000
 ElectricEquipment Internal Gains Nominal, OFFICE_OPEN_1_EQUIPMENT,OFFICE_OPEN_EQUIPMENT,OFFICE_OPEN_1,318.45,15.0,2579.416,8.100,171.961,0.100,0.200,0.000,0.700,General,1805.591,1805.591,1805.591,1805.591,1805.591,1805.591,1805.591,1805.591,1805.591,1805.591
 ElectricEquipment Internal Gains Nominal, OFFICE_PRIVATE_1_EQUIPMENT,OFFICE_OPEN_EQUIPMENT,OFFICE_PRIVATE_1,35.79,1.0,289.887,8.100,289.887,0.100,0.200,0.000,0.700,General,202.921,202.921,202.921,202.921,202.921,202.921,202.921,202.921,202.921,202.921
 ElectricEquipment Internal Gains Nominal, STORAGE_1_EQUIPMENT,STORAGE_EQUIPMENT,STORAGE_1,36.76,1.0,40.441,1.100,40.441,0.100,0.200,0.000,0.700,General,28.309,28.309,28.309,28.309,28.309,28.309,28.309,28.309,28.309,28.309
 ElectricEquipment Internal Gains Nominal, LOBBY_2_EQUIPMENT,LOBBY_EQUIPMENT,LOBBY_2,58.49,2.0,187.164,3.200,93.582,0.100,0.200,0.000,0.700,General,131.015,131.015,131.015,131.015,131.015,131.015,131.015,131.015,131.015,131.015
 ElectricEquipment Internal Gains Nominal, CONFERENCE_2_EQUIPMENT,CONFERENCE_EQUIPMENT,CONFERENCE_2,69.06,13.0,559.414,8.100,43.032,0.100,0.200,0.000,0.700,General,391.590,391.590,391.590,391.590,391.590,391.590,391.590,391.590,391.590,391.590
 ElectricEquipment Internal Gains Nominal, BREAK_ROOM_2_EQUIPMENT,BREAK_ROOM_EQUIPMENT,BREAK_ROOM_2,70.49,7.0,1057.277,15.000,151.040,0.100,0.200,0.000,0.700,General,740.094,740.094,740.094,740.094,740.094,740.094,740.094,740.094,740.094,740.094
 ElectricEquipment Internal Gains Nominal, OFFICE_OPEN_2_EQUIPMENT,OFFICE_OPEN_EQUIPMENT,OFFICE_OPEN_2,433.24,21.0,3509.257,8.100,167.107,0.100,0.200,0.000,0.700,General,2456.480,2456.480,2456.480,2456.480,2456.480,2456.480,2456.480,2456.480,2456.480,2456.480
 ElectricEquipment Internal Gains Nominal, LOBBY_3_EQUIPMENT,LOBBY_EQUIPMENT,LOBBY_3,64.33,3.0,205.865,3.200,68.622,0.100,0.200,0.000,0.700,General,144.105,144.105,144.105,144.105,144.105,144.105,144.105,144.105,144.105,144.105
 ElectricEquipment Internal Gains Nominal, CONFERENCE_3_EQUIPMENT,CONFERENCE_EQUIPMENT,CONFERENCE_3,87.39,17.0,707.838,8.100,41.638,0.100,0.200,0.000,0.700,General,495.487,495.487,495.487,495.487,495.487,495.487,495.487,495.487,495.487,495.487
 ElectricEquipment Internal Gains Nominal, MECHANICAL_3_EQUIPMENT,MECHANICAL_EQUIPMENT,MECHANICAL_3,73.28,1.0,0.000,0.000,0.000,0.100,0.200,0.000,0.700,General,0.000,0.000,0.000,0.000,0.000,0.000,0.000,0.000,0.000,0.000
 ElectricEquipment Internal Gains Nominal, STORAGE_3_EQUIPMENT,STORAGE_EQUIPMENT,STORAGE_3,30.69,1.0,33.757,1.100,33.757,0.100,0.200,0.000,0.700,General,23.630,23.630,23.630,23.630,23.630,23.630,23.630,23.630,23.630,23.630
 ElectricEquipment Internal Gains Nominal, LOBBY_4_EQUIPMENT,LOBBY_EQUIPMENT,LOBBY_4,169.03,8.0,540.898,3.200,67.612,0.100,0.200,0.000,0.700,General,378.629,378.629,378.629,378.629,378.629,378.629,378.629,378.629,378.629,378.629
 ElectricEquipment Internal Gains Nominal, CONFERENCE_4_EQUIPMENT,CONFERENCE_EQUIPMENT,CONFERENCE_4,70.02,14.0,567.143,8.100,40.510,0.100,0.200,0.000,0.700,General,397.000,397.000,397.000,397.000,397.000,397.000,397.000,397.000,397.000,397.000
 ElectricEquipment Internal Gains Nominal, MECHANICAL_4_EQUIPMENT,MECHANICAL_EQUIPMENT,MECHANICAL_4,35.78,1.0,0.000,0.000,0.000,0.100,0.200,0.000,0.700,General,0.000,0.000,0.000,0.000,0.000,0.000,0.000,0.000,0.000,0.000
 ElectricEquipment Internal Gains Nominal, OFFICE_PRIVATE_4_EQUIPMENT,OFFICE_OPEN_EQUIPMENT,OFFICE_PRIVATE_4,46.91,2.0,379.939,8.100,189.969,0.100,0.200,0.000,0.700,General,265.957,265.957,265.957,265.957,265.957,265.957,265.957,265.957,265.957,265.957
! <Enclosure/Window Adjacency Daylighting Counts>, Enclosure Name, Number of Exterior Windows, Number of Exterior Windows in Adjacent Enclosures
Enclosure/Window Adjacency Daylighting Counts, LOBBY_0,4,0
Enclosure/Window Adjacency Daylighting Counts, CONFERENCE_0,4,0
Enclosure/Window Adjacency Daylighting Counts, OFFICE_OPEN_1,4,0
Enclosure/Window Adjacency Daylighting Counts, OFFICE_PRIVATE_1,4,0
Enclosure/Window Adjacency Daylighting Counts, LOBBY_2,4,0
Enclosure/Window Adjacency Daylighting Counts, CONFERENCE_2,4,0
Enclosure/Window Adjacency Daylighting Counts, BREAK_ROOM_2,4,0
Enclosure/Window Adjacency Daylighting Counts, OFFICE_OPEN_2,4,0
Enclosure/Window Adjacency Daylighting Counts, LOBBY_3,4,0
Enclosure/Window Adjacency Daylighting Counts, CONFERENCE_3,4,0
Enclosure/Window Adjacency Daylighting Counts, LOBBY_4,4,0
Enclosure/Window Adjacency Daylighting Counts, CONFERENCE_4,4,0
Enclosure/Window Adjacency Daylighting Counts, OFFICE_PRIVATE_4,4,0
! <Enclosure/Window Adjacency Daylighting Matrix>, Enclosure Name, Number of Adjacent Enclosures with Windows,Adjacent Enclosure Names - 1st 100 (max)
Enclosure/Window Adjacency Daylighting Matrix, LOBBY_0,0
Enclosure/Window Adjacency Daylighting Matrix, CONFERENCE_0,0
Enclosure/Window Adjacency Daylighting Matrix, OFFICE_OPEN_1,0
Enclosure/Window Adjacency Daylighting Matrix, OFFICE_PRIVATE_1,0
Enclosure/Window Adjacency Daylighting Matrix, LOBBY_2,0
Enclosure/Window Adjacency Daylighting Matrix, CONFERENCE_2,0
Enclosure/Window Adjacency Daylighting Matrix, BREAK_ROOM_2,0
Enclosure/Window Adjacency Daylighting Matrix, OFFICE_OPEN_2,0
Enclosure/Window Adjacency Daylighting Matrix, LOBBY_3,0
Enclosure/Window Adjacency Daylighting Matrix, CONFERENCE_3,0
Enclosure/Window Adjacency Daylighting Matrix, LOBBY_4,0
Enclosure/Window Adjacency Daylighting Matrix, CONFERENCE_4,0
Enclosure/Window Adjacency Daylighting Matrix, OFFICE_PRIVATE_4,0
! <RoomAir Model>, Zone Name, Mixing/Mundt/UCSDDV/UCSDCV/UCSDUFI/UCSDUFE/User Defined
RoomAir Model,LOBBY_0,Mixing/Well-Stirred
RoomAir Model,CONFERENCE_0,Mixing/Well-Stirred
RoomAir Model,STORAGE_0,Mixing/Well-Stirred
RoomAir Model,MECHANICAL_1,Mixing/Well-Stirred
RoomAir Model,OFFICE_OPEN_1,Mixing/Well-Stirred
RoomAir Model,OFFICE_PRIVATE_1,Mixing/Well-Stirred
RoomAir Model,STORAGE_1,Mixing/Well-Stirred
RoomAir Model,LOBBY_2,Mixing/Well-Stirred
RoomAir Model,CONFERENCE_2,Mixing/Well-Stirred
RoomAir Model,BREAK_ROOM_2,Mixing/Well-Stirred
RoomAir Model,OFFICE_OPEN_2,Mixing/Well-Stirred
RoomAir Model,LOBBY_3,Mixing/Well-Stirred
RoomAir Model,CONFERENCE_3,Mixing/Well-Stirred
RoomAir Model,MECHANICAL_3,Mixing/Well-Stirred
RoomAir Model,STORAGE_3,Mixing/Well-Stirred
RoomAir Model,LOBBY_4,Mixing/Well-Stirred
RoomAir Model,CONFERENCE_4,Mixing/Well-Stirred
RoomAir Model,MECHANICAL_4,Mixing/Well-Stirred
RoomAir Model,OFFICE_PRIVATE_4,Mixing/Well-Stirred
! <AirflowNetwork Model:Control>, No Multizone or Distribution/Multizone with Distribution/Multizone without Distribution/Multizone with Distribution only during Fan Operation
AirflowNetwork Model:Control,NoMultizoneOrDistribution
! <Zone Volume Capacitance Multiplier>, Sensible Heat Capacity Multiplier, Moisture Capacity Multiplier, Carbon Dioxide Capacity Multiplier, Generic Contaminant Capacity Multiplier
Zone Volume Capacitance Multiplier,   1.000 ,   1.000,   1.000,   1.000
! <Component Sizing Information>, Component Type, Component Name, Input Field Description, Value
 Component Sizing Information, AirTerminal:SingleDuct:VAV:Reheat, LOBBY_0_Z1_VAVTERMINAL, User-Specified Maximum Air Flow Rate [m3/s], 0.38286
 Component Sizing Information, AirTerminal:SingleDuct:VAV:Reheat, LOBBY_0_Z1_VAVTERMINAL, Design Size Constant Minimum Air Flow Fraction, 0.20000
 Component Sizing Information, AirTerminal:SingleDuct:VAV:Reheat, LOBBY_0_Z1_VAVTERMINAL, User-Specified Constant Minimum Air Flow Fraction, 0.20000
 Component Sizing Information, AirTerminal:SingleDuct:VAV:Reheat, LOBBY_0_Z1_VAVTERMINAL, Design Size Minimum Air Flow Rate [m3/s], 7.65727E-002
 Component Sizing Information, AirTerminal:SingleDuct:VAV:Reheat, LOBBY_0_Z1_VAVTERMINAL, Design Size Maximum Flow per Zone Floor Area during Reheat [m3/s-m2], 1.00000E-003
 Component Sizing Information, AirTerminal:SingleDuct:VAV:Reheat, LOBBY_0_Z1_VAVTERMINAL, Design Size Maximum Flow Fraction during Reheat [], 0.20000
 Component Sizing Information, AirTerminal:SingleDuct:VAV:Reheat, LOBBY_0_Z1_VAVTERMINAL, User-Specified Maximum Reheat Water Flow Rate [m3/s], 6.12582
 Component Sizing Information, Coil:Heating:Electric, LOBBY_0_Z1_REHEATCOIL, User-Specified Nominal Capacity [W], 1837.74453
 Component Sizing Information, AirTerminal:SingleDuct:VAV:Reheat, CONFERENCE_0_Z2_VAVTERMINAL, User-Specified Maximum Air Flow Rate [m3/s], 0.18789
 Component Sizing Information, AirTerminal:SingleDuct:VAV:Reheat, CONFERENCE_0_Z2_VAVTERMINAL, Design Size Constant Minimum Air Flow Fraction, 0.20000
 Component Sizing Information, AirTerminal:SingleDuct:VAV:Reheat, CONFERENCE_0_Z2_VAVTERMINAL, User-Specified Constant Minimum Air Flow Fraction, 0.20000
 Component Sizing Information, AirTerminal:SingleDuct:VAV:Reheat, CONFERENCE_0_Z2_VAVTERMINAL, Design Size Minimum Air Flow Rate [m3/s], 3.75786E-002
 Component Sizing Information, AirTerminal:SingleDuct:VAV:Reheat, CONFERENCE_0_Z2_VAVTERMINAL, Design Size Maximum Flow per Zone Floor Area during Reheat [m3/s-m2], 9.99999E-004
 Component Sizing Information, AirTerminal:SingleDuct:VAV:Reheat, CONFERENCE_0_Z2_VAVTERMINAL, Design Size Maximum Flow Fraction during Reheat [], 0.20000
 Component Sizing Information, AirTerminal:SingleDuct:VAV:Reheat, CONFERENCE_0_Z2_VAVTERMINAL, User-Specified Maximum Reheat Water Flow Rate [m3/s], 3.00628
 Component Sizing Information, Coil:Heating:Electric, CONFERENCE_0_Z2_REHEATCOIL, User-Specified Nominal Capacity [W], 901.88525
 Component Sizing Information, AirTerminal:SingleDuct:VAV:Reheat, STORAGE_0_Z3_VAVTERMINAL, User-Specified Maximum Air Flow Rate [m3/s], 8.68969E-002
 Component Sizing Information, AirTerminal:SingleDuct:VAV:Reheat, STORAGE_0_Z3_VAVTERMINAL, Design Size Constant Minimum Air Flow Fraction, 0.20000
 Component Sizing Information, AirTerminal:SingleDuct:VAV:Reheat, STORAGE_0_Z3_VAVTERMINAL, User-Specified Constant Minimum Air Flow Fraction, 0.20000
 Component Sizing Information, AirTerminal:SingleDuct:VAV:Reheat, STORAGE_0_Z3_VAVTERMINAL, Design Size Minimum Air Flow Rate [m3/s], 1.73794E-002
 Component Sizing Information, AirTerminal:SingleDuct:VAV:Reheat, STORAGE_0_Z3_VAVTERMINAL, Design Size Maximum Flow per Zone Floor Area during Reheat [m3/s-m2], 9.99995E-004
 Component Sizing Information, AirTerminal:SingleDuct:VAV:Reheat, STORAGE_0_Z3_VAVTERMINAL, Design Size Maximum Flow Fraction during Reheat [], 0.20000
 Component Sizing Information, AirTerminal:SingleDuct:VAV:Reheat, STORAGE_0_Z3_VAVTERMINAL, User-Specified Maximum Reheat Water Flow Rate [m3/s], 1.39035
 Component Sizing Information, Coil:Heating:Electric, STORAGE_0_Z3_REHEATCOIL, User-Specified Nominal Capacity [W], 417.10525
 Component Sizing Information, AirTerminal:SingleDuct:VAV:Reheat, MECHANICAL_1_Z4_VAVTERMINAL, User-Specified Maximum Air Flow Rate [m3/s], 0.22874
 Component Sizing Information, AirTerminal:SingleDuct:VAV:Reheat, MECHANICAL_1_Z4_VAVTERMINAL, Design Size Constant Minimum Air Flow Fraction, 0.20000
 Component Sizing Information, AirTerminal:SingleDuct:VAV:Reheat, MECHANICAL_1_Z4_VAVTERMINAL, User-Specified Constant Minimum Air Flow Fraction, 0.20000
 Component Sizing Information, AirTerminal:SingleDuct:VAV:Reheat, MECHANICAL_1_Z4_VAVTERMINAL, Design Size Minimum Air Flow Rate [m3/s], 4.57475E-002
 Component Sizing Information, AirTerminal:SingleDuct:VAV:Reheat, MECHANICAL_1_Z4_VAVTERMINAL, Design Size Maximum Flow per Zone Floor Area during Reheat [m3/s-m2], 9.99991E-004
 Component Sizing Information, AirTerminal:SingleDuct:VAV:Reheat, MECHANICAL_1_Z4_VAVTERMINAL, Design Size Maximum Flow Fraction during Reheat [], 0.20000
 Component Sizing Information, AirTerminal:SingleDuct:VAV:Reheat, MECHANICAL_1_Z4_VAVTERMINAL, User-Specified Maximum Reheat Water Flow Rate [m3/s], 3.65980
 Component Sizing Information, Coil:Heating:Electric, MECHANICAL_1_Z4_REHEATCOIL, User-Specified Nominal Capacity [W], 1097.94052
 Component Sizing Information, AirTerminal:SingleDuct:VAV:Reheat, OFFICE_OPEN_1_Z5_VAVTERMINAL, User-Specified Maximum Air Flow Rate [m3/s], 1.59222
 Component Sizing Information, AirTerminal:SingleDuct:VAV:Reheat, OFFICE_OPEN_1_Z5_VAVTERMINAL, Design Size Constant Minimum Air Flow Fraction, 0.20000
 Component Sizing Information, AirTerminal:SingleDuct:VAV:Reheat, OFFICE_OPEN_1_Z5_VAVTERMINAL, User-Specified Constant Minimum Air Flow Fraction, 0.20000
 Component Sizing Information, AirTerminal:SingleDuct:VAV:Reheat, OFFICE_OPEN_1_Z5_VAVTERMINAL, Design Size Minimum Air Flow Rate [m3/s], 0.31844
 Component Sizing Information, AirTerminal:SingleDuct:VAV:Reheat, OFFICE_OPEN_1_Z5_VAVTERMINAL, Design Size Maximum Flow per Zone Floor Area during Reheat [m3/s-m2], 9.99995E-004
 Component Sizing Information, AirTerminal:SingleDuct:VAV:Reheat, OFFICE_OPEN_1_Z5_VAVTERMINAL, Design Size Maximum Flow Fraction during Reheat [], 0.20000
 Component Sizing Information, AirTerminal:SingleDuct:VAV:Reheat, OFFICE_OPEN_1_Z5_VAVTERMINAL, User-Specified Maximum Reheat Water Flow Rate [m3/s], 25.47558
 Component Sizing Information, Coil:Heating:Electric, OFFICE_OPEN_1_Z5_REHEATCOIL, User-Specified Nominal Capacity [W], 7642.67405
 Component Sizing Information, AirTerminal:SingleDuct:VAV:Reheat, OFFICE_PRIVATE_1_Z6_VAVTERMINAL, User-Specified Maximum Air Flow Rate [m3/s], 0.17894
 Component Sizing Information, AirTerminal:SingleDuct:VAV:Reheat, OFFICE_PRIVATE_1_Z6_VAVTERMINAL, Design Size Constant Minimum Air Flow Fraction, 0.20000
 Component Sizing Information, AirTerminal:SingleDuct:VAV:Reheat, OFFICE_PRIVATE_1_Z6_VAVTERMINAL, User-Specified Constant Minimum Air Flow Fraction, 0.20000
 Component Sizing Information, AirTerminal:SingleDuct:VAV:Reheat, OFFICE_PRIVATE_1_Z6_VAVTERMINAL, Design Size Minimum Air Flow Rate [m3/s], 3.57887E-002
 Component Sizing Information, AirTerminal:SingleDuct:VAV:Reheat, OFFICE_PRIVATE_1_Z6_VAVTERMINAL, Design Size Maximum Flow per Zone Floor Area during Reheat [m3/s-m2], 1.00000E-003
 Component Sizing Information, AirTerminal:SingleDuct:VAV:Reheat, OFFICE_PRIVATE_1_Z6_VAVTERMINAL, Design Size Maximum Flow Fraction during Reheat [], 0.20000
 Component Sizing Information, AirTerminal:SingleDuct:VAV:Reheat, OFFICE_PRIVATE_1_Z6_VAVTERMINAL, User-Specified Maximum Reheat Water Flow Rate [m3/s], 2.86309
 Component Sizing Information, Coil:Heating:Electric, OFFICE_PRIVATE_1_Z6_REHEATCOIL, User-Specified Nominal Capacity [W], 858.92781
 Component Sizing Information, AirTerminal:SingleDuct:VAV:Reheat, STORAGE_1_Z7_VAVTERMINAL, User-Specified Maximum Air Flow Rate [m3/s], 0.18382
 Component Sizing Information, AirTerminal:SingleDuct:VAV:Reheat, STORAGE_1_Z7_VAVTERMINAL, Design Size Constant Minimum Air Flow Fraction, 0.20000
 Component Sizing Information, AirTerminal:SingleDuct:VAV:Reheat, STORAGE_1_Z7_VAVTERMINAL, User-Specified Constant Minimum Air Flow Fraction, 0.20000
 Component Sizing Information, AirTerminal:SingleDuct:VAV:Reheat, STORAGE_1_Z7_VAVTERMINAL, Design Size Minimum Air Flow Rate [m3/s], 3.67639E-002
 Component Sizing Information, AirTerminal:SingleDuct:VAV:Reheat, STORAGE_1_Z7_VAVTERMINAL, Design Size Maximum Flow per Zone Floor Area during Reheat [m3/s-m2], 9.99984E-004
 Component Sizing Information, AirTerminal:SingleDuct:VAV:Reheat, STORAGE_1_Z7_VAVTERMINAL, Design Size Maximum Flow Fraction during Reheat [], 0.20000
 Component Sizing Information, AirTerminal:SingleDuct:VAV:Reheat, STORAGE_1_Z7_VAVTERMINAL, User-Specified Maximum Reheat Water Flow Rate [m3/s], 2.94111
 Component Sizing Information, Coil:Heating:Electric, STORAGE_1_Z7_REHEATCOIL, User-Specified Nominal Capacity [W], 882.33349
 Component Sizing Information, AirTerminal:SingleDuct:VAV:Reheat, LOBBY_2_Z8_VAVTERMINAL, User-Specified Maximum Air Flow Rate [m3/s], 0.29244
 Component Sizing Information, AirTerminal:SingleDuct:VAV:Reheat, LOBBY_2_Z8_VAVTERMINAL, Design Size Constant Minimum Air Flow Fraction, 0.20000
 Component Sizing Information, AirTerminal:SingleDuct:VAV:Reheat, LOBBY_2_Z8_VAVTERMINAL, User-Specified Constant Minimum Air Flow Fraction, 0.20000
 Component Sizing Information, AirTerminal:SingleDuct:VAV:Reheat, LOBBY_2_Z8_VAVTERMINAL, Design Size Minimum Air Flow Rate [m3/s], 5.84889E-002
 Component Sizing Information, AirTerminal:SingleDuct:VAV:Reheat, LOBBY_2_Z8_VAVTERMINAL, Design Size Maximum Flow per Zone Floor Area during Reheat [m3/s-m2], 1.00000E-003
 Component Sizing Information, AirTerminal:SingleDuct:VAV:Reheat, LOBBY_2_Z8_VAVTERMINAL, Design Size Maximum Flow Fraction during Reheat [], 0.20000
 Component Sizing Information, AirTerminal:SingleDuct:VAV:Reheat, LOBBY_2_Z8_VAVTERMINAL, User-Specified Maximum Reheat Water Flow Rate [m3/s], 4.67911
 Component Sizing Information, Coil:Heating:Electric, LOBBY_2_Z8_REHEATCOIL, User-Specified Nominal Capacity [W], 1403.73361
 Component Sizing Information, AirTerminal:SingleDuct:VAV:Reheat, CONFERENCE_2_Z9_VAVTERMINAL, User-Specified Maximum Air Flow Rate [m3/s], 0.34532
 Component Sizing Information, AirTerminal:SingleDuct:VAV:Reheat, CONFERENCE_2_Z9_VAVTERMINAL, Design Size Constant Minimum Air Flow Fraction, 0.20000
 Component Sizing Information, AirTerminal:SingleDuct:VAV:Reheat, CONFERENCE_2_Z9_VAVTERMINAL, User-Specified Constant Minimum Air Flow Fraction, 0.20000
 Component Sizing Information, AirTerminal:SingleDuct:VAV:Reheat, CONFERENCE_2_Z9_VAVTERMINAL, Design Size Minimum Air Flow Rate [m3/s], 6.90636E-002
 Component Sizing Information, AirTerminal:SingleDuct:VAV:Reheat, CONFERENCE_2_Z9_VAVTERMINAL, Design Size Maximum Flow per Zone Floor Area during Reheat [m3/s-m2], 1.00000E-003
 Component Sizing Information, AirTerminal:SingleDuct:VAV:Reheat, CONFERENCE_2_Z9_VAVTERMINAL, Design Size Maximum Flow Fraction during Reheat [], 0.20000
 Component Sizing Information, AirTerminal:SingleDuct:VAV:Reheat, CONFERENCE_2_Z9_VAVTERMINAL, User-Specified Maximum Reheat Water Flow Rate [m3/s], 5.52509
 Component Sizing Information, Coil:Heating:Electric, CONFERENCE_2_Z9_REHEATCOIL, User-Specified Nominal Capacity [W], 1657.52585
 Component Sizing Information, AirTerminal:SingleDuct:VAV:Reheat, BREAK_ROOM_2_Z10_VAVTERMINAL, User-Specified Maximum Air Flow Rate [m3/s], 0.35243
 Component Sizing Information, AirTerminal:SingleDuct:VAV:Reheat, BREAK_ROOM_2_Z10_VAVTERMINAL, Design Size Constant Minimum Air Flow Fraction, 0.20000
 Component Sizing Information, AirTerminal:SingleDuct:VAV:Reheat, BREAK_ROOM_2_Z10_VAVTERMINAL, User-Specified Constant Minimum Air Flow Fraction, 0.20000
 Component Sizing Information, AirTerminal:SingleDuct:VAV:Reheat, BREAK_ROOM_2_Z10_VAVTERMINAL, Design Size Minimum Air Flow Rate [m3/s], 7.04851E-002
 Component Sizing Information, AirTerminal:SingleDuct:VAV:Reheat, BREAK_ROOM_2_Z10_VAVTERMINAL, Design Size Maximum Flow per Zone Floor Area during Reheat [m3/s-m2], 9.99999E-004
 Component Sizing Information, AirTerminal:SingleDuct:VAV:Reheat, BREAK_ROOM_2_Z10_VAVTERMINAL, Design Size Maximum Flow Fraction during Reheat [], 0.20000
 Component Sizing Information, AirTerminal:SingleDuct:VAV:Reheat, BREAK_ROOM_2_Z10_VAVTERMINAL, User-Specified Maximum Reheat Water Flow Rate [m3/s], 5.63881
 Component Sizing Information, Coil:Heating:Electric, BREAK_ROOM_2_Z10_REHEATCOIL, User-Specified Nominal Capacity [W], 1691.64160
 Component Sizing Information, AirTerminal:SingleDuct:VAV:Reheat, OFFICE_OPEN_2_Z11_VAVTERMINAL, User-Specified Maximum Air Flow Rate [m3/s], 2.16620
 Component Sizing Information, AirTerminal:SingleDuct:VAV:Reheat, OFFICE_OPEN_2_Z11_VAVTERMINAL, Design Size Constant Minimum Air Flow Fraction, 0.20000
 Component Sizing Information, AirTerminal:SingleDuct:VAV:Reheat, OFFICE_OPEN_2_Z11_VAVTERMINAL, User-Specified Constant Minimum Air Flow Fraction, 0.20000
 Component Sizing Information, AirTerminal:SingleDuct:VAV:Reheat, OFFICE_OPEN_2_Z11_VAVTERMINAL, Design Size Minimum Air Flow Rate [m3/s], 0.43324
 Component Sizing Information, AirTerminal:SingleDuct:VAV:Reheat, OFFICE_OPEN_2_Z11_VAVTERMINAL, Design Size Maximum Flow per Zone Floor Area during Reheat [m3/s-m2], 9.99998E-004
 Component Sizing Information, AirTerminal:SingleDuct:VAV:Reheat, OFFICE_OPEN_2_Z11_VAVTERMINAL, Design Size Maximum Flow Fraction during Reheat [], 0.20000
 Component Sizing Information, AirTerminal:SingleDuct:VAV:Reheat, OFFICE_OPEN_2_Z11_VAVTERMINAL, User-Specified Maximum Reheat Water Flow Rate [m3/s], 34.65927
 Component Sizing Information, Coil:Heating:Electric, OFFICE_OPEN_2_Z11_REHEATCOIL, User-Specified Nominal Capacity [W], 10397.78113
 Component Sizing Information, AirTerminal:SingleDuct:VAV:Reheat, LOBBY_3_Z12_VAVTERMINAL, User-Specified Maximum Air Flow Rate [m3/s], 0.32167
 Component Sizing Information, AirTerminal:SingleDuct:VAV:Reheat, LOBBY_3_Z12_VAVTERMINAL, Design Size Constant Minimum Air Flow Fraction, 0.20000
 Component Sizing Information, AirTerminal:SingleDuct:VAV:Reheat, LOBBY_3_Z12_VAVTERMINAL, User-Specified Constant Minimum Air Flow Fraction, 0.20000
 Component Sizing Information, AirTerminal:SingleDuct:VAV:Reheat, LOBBY_3_Z12_VAVTERMINAL, Design Size Minimum Air Flow Rate [m3/s], 6.43332E-002
 Component Sizing Information, AirTerminal:SingleDuct:VAV:Reheat, LOBBY_3_Z12_VAVTERMINAL, Design Size Maximum Flow per Zone Floor Area during Reheat [m3/s-m2], 1.00001E-003
 Component Sizing Information, AirTerminal:SingleDuct:VAV:Reheat, LOBBY_3_Z12_VAVTERMINAL, Design Size Maximum Flow Fraction during Reheat [], 0.20000
 Component Sizing Information, AirTerminal:SingleDuct:VAV:Reheat, LOBBY_3_Z12_VAVTERMINAL, User-Specified Maximum Reheat Water Flow Rate [m3/s], 5.14666
 Component Sizing Information, Coil:Heating:Electric, LOBBY_3_Z12_REHEATCOIL, User-Specified Nominal Capacity [W], 1543.99787
 Component Sizing Information, AirTerminal:SingleDuct:VAV:Reheat, CONFERENCE_3_Z13_VAVTERMINAL, User-Specified Maximum Air Flow Rate [m3/s], 0.43694
 Component Sizing Information, AirTerminal:SingleDuct:VAV:Reheat, CONFERENCE_3_Z13_VAVTERMINAL, Design Size Constant Minimum Air Flow Fraction, 0.20000
 Component Sizing Information, AirTerminal:SingleDuct:VAV:Reheat, CONFERENCE_3_Z13_VAVTERMINAL, User-Specified Constant Minimum Air Flow Fraction, 0.20000
 Component Sizing Information, AirTerminal:SingleDuct:VAV:Reheat, CONFERENCE_3_Z13_VAVTERMINAL, Design Size Minimum Air Flow Rate [m3/s], 8.73879E-002
 Component Sizing Information, AirTerminal:SingleDuct:VAV:Reheat, CONFERENCE_3_Z13_VAVTERMINAL, Design Size Maximum Flow per Zone Floor Area during Reheat [m3/s-m2], 1.00001E-003
 Component Sizing Information, AirTerminal:SingleDuct:VAV:Reheat, CONFERENCE_3_Z13_VAVTERMINAL, Design Size Maximum Flow Fraction during Reheat [], 0.20000
 Component Sizing Information, AirTerminal:SingleDuct:VAV:Reheat, CONFERENCE_3_Z13_VAVTERMINAL, User-Specified Maximum Reheat Water Flow Rate [m3/s], 6.99103
 Component Sizing Information, Coil:Heating:Electric, CONFERENCE_3_Z13_REHEATCOIL, User-Specified Nominal Capacity [W], 2097.30995
 Component Sizing Information, AirTerminal:SingleDuct:VAV:Reheat, MECHANICAL_3_Z14_VAVTERMINAL, User-Specified Maximum Air Flow Rate [m3/s], 0.36640
 Component Sizing Information, AirTerminal:SingleDuct:VAV:Reheat, MECHANICAL_3_Z14_VAVTERMINAL, Design Size Constant Minimum Air Flow Fraction, 0.20000
 Component Sizing Information, AirTerminal:SingleDuct:VAV:Reheat, MECHANICAL_3_Z14_VAVTERMINAL, User-Specified Constant Minimum Air Flow Fraction, 0.20000
 Component Sizing Information, AirTerminal:SingleDuct:VAV:Reheat, MECHANICAL_3_Z14_VAVTERMINAL, Design Size Minimum Air Flow Rate [m3/s], 7.32790E-002
 Component Sizing Information, AirTerminal:SingleDuct:VAV:Reheat, MECHANICAL_3_Z14_VAVTERMINAL, Design Size Maximum Flow per Zone Floor Area during Reheat [m3/s-m2], 9.99999E-004
 Component Sizing Information, AirTerminal:SingleDuct:VAV:Reheat, MECHANICAL_3_Z14_VAVTERMINAL, Design Size Maximum Flow Fraction during Reheat [], 0.20000
 Component Sizing Information, AirTerminal:SingleDuct:VAV:Reheat, MECHANICAL_3_Z14_VAVTERMINAL, User-Specified Maximum Reheat Water Flow Rate [m3/s], 5.86232
 Component Sizing Information, Coil:Heating:Electric, MECHANICAL_3_Z14_REHEATCOIL, User-Specified Nominal Capacity [W], 1758.69657
 Component Sizing Information, AirTerminal:SingleDuct:VAV:Reheat, STORAGE_3_Z15_VAVTERMINAL, User-Specified Maximum Air Flow Rate [m3/s], 0.15344
 Component Sizing Information, AirTerminal:SingleDuct:VAV:Reheat, STORAGE_3_Z15_VAVTERMINAL, Design Size Constant Minimum Air Flow Fraction, 0.20000
 Component Sizing Information, AirTerminal:SingleDuct:VAV:Reheat, STORAGE_3_Z15_VAVTERMINAL, User-Specified Constant Minimum Air Flow Fraction, 0.20000
 Component Sizing Information, AirTerminal:SingleDuct:VAV:Reheat, STORAGE_3_Z15_VAVTERMINAL, Design Size Minimum Air Flow Rate [m3/s], 3.06890E-002
 Component Sizing Information, AirTerminal:SingleDuct:VAV:Reheat, STORAGE_3_Z15_VAVTERMINAL, Design Size Maximum Flow per Zone Floor Area during Reheat [m3/s-m2], 1.00002E-003
 Component Sizing Information, AirTerminal:SingleDuct:VAV:Reheat, STORAGE_3_Z15_VAVTERMINAL, Design Size Maximum Flow Fraction during Reheat [], 0.20000
 Component Sizing Information, AirTerminal:SingleDuct:VAV:Reheat, STORAGE_3_Z15_VAVTERMINAL, User-Specified Maximum Reheat Water Flow Rate [m3/s], 2.45512
 Component Sizing Information, Coil:Heating:Electric, STORAGE_3_Z15_REHEATCOIL, User-Specified Nominal Capacity [W], 736.53537
 Component Sizing Information, AirTerminal:SingleDuct:VAV:Reheat, LOBBY_4_Z16_VAVTERMINAL, User-Specified Maximum Air Flow Rate [m3/s], 0.84516
 Component Sizing Information, AirTerminal:SingleDuct:VAV:Reheat, LOBBY_4_Z16_VAVTERMINAL, Design Size Constant Minimum Air Flow Fraction, 0.20000
 Component Sizing Information, AirTerminal:SingleDuct:VAV:Reheat, LOBBY_4_Z16_VAVTERMINAL, User-Specified Constant Minimum Air Flow Fraction, 0.20000
 Component Sizing Information, AirTerminal:SingleDuct:VAV:Reheat, LOBBY_4_Z16_VAVTERMINAL, Design Size Minimum Air Flow Rate [m3/s], 0.16903
 Component Sizing Information, AirTerminal:SingleDuct:VAV:Reheat, LOBBY_4_Z16_VAVTERMINAL, Design Size Maximum Flow per Zone Floor Area during Reheat [m3/s-m2], 1.00000E-003
 Component Sizing Information, AirTerminal:SingleDuct:VAV:Reheat, LOBBY_4_Z16_VAVTERMINAL, Design Size Maximum Flow Fraction during Reheat [], 0.20000
 Component Sizing Information, AirTerminal:SingleDuct:VAV:Reheat, LOBBY_4_Z16_VAVTERMINAL, User-Specified Maximum Reheat Water Flow Rate [m3/s], 13.52251
 Component Sizing Information, Coil:Heating:Electric, LOBBY_4_Z16_REHEATCOIL, User-Specified Nominal Capacity [W], 4056.75286
 Component Sizing Information, AirTerminal:SingleDuct:VAV:Reheat, CONFERENCE_4_Z17_VAVTERMINAL, User-Specified Maximum Air Flow Rate [m3/s], 0.35009
 Component Sizing Information, AirTerminal:SingleDuct:VAV:Reheat, CONFERENCE_4_Z17_VAVTERMINAL, Design Size Constant Minimum Air Flow Fraction, 0.20000
 Component Sizing Information, AirTerminal:SingleDuct:VAV:Reheat, CONFERENCE_4_Z17_VAVTERMINAL, User-Specified Constant Minimum Air Flow Fraction, 0.20000
 Component Sizing Information, AirTerminal:SingleDuct:VAV:Reheat, CONFERENCE_4_Z17_VAVTERMINAL, Design Size Minimum Air Flow Rate [m3/s], 7.00170E-002
 Component Sizing Information, AirTerminal:SingleDuct:VAV:Reheat, CONFERENCE_4_Z17_VAVTERMINAL, Design Size Maximum Flow per Zone Floor Area during Reheat [m3/s-m2], 9.99992E-004
 Component Sizing Information, AirTerminal:SingleDuct:VAV:Reheat, CONFERENCE_4_Z17_VAVTERMINAL, Design Size Maximum Flow Fraction during Reheat [], 0.20000
 Component Sizing Information, AirTerminal:SingleDuct:VAV:Reheat, CONFERENCE_4_Z17_VAVTERMINAL, User-Specified Maximum Reheat Water Flow Rate [m3/s], 5.60136
 Component Sizing Information, Coil:Heating:Electric, CONFERENCE_4_Z17_REHEATCOIL, User-Specified Nominal Capacity [W], 1680.40872
 Component Sizing Information, AirTerminal:SingleDuct:VAV:Reheat, MECHANICAL_4_Z18_VAVTERMINAL, User-Specified Maximum Air Flow Rate [m3/s], 0.17890
 Component Sizing Information, AirTerminal:SingleDuct:VAV:Reheat, MECHANICAL_4_Z18_VAVTERMINAL, Design Size Constant Minimum Air Flow Fraction, 0.20000
 Component Sizing Information, AirTerminal:SingleDuct:VAV:Reheat, MECHANICAL_4_Z18_VAVTERMINAL, User-Specified Constant Minimum Air Flow Fraction, 0.20000
 Component Sizing Information, AirTerminal:SingleDuct:VAV:Reheat, MECHANICAL_4_Z18_VAVTERMINAL, Design Size Minimum Air Flow Rate [m3/s], 3.57791E-002
 Component Sizing Information, AirTerminal:SingleDuct:VAV:Reheat, MECHANICAL_4_Z18_VAVTERMINAL, Design Size Maximum Flow per Zone Floor Area during Reheat [m3/s-m2], 9.99984E-004
 Component Sizing Information, AirTerminal:SingleDuct:VAV:Reheat, MECHANICAL_4_Z18_VAVTERMINAL, Design Size Maximum Flow Fraction during Reheat [], 0.20000
 Component Sizing Information, AirTerminal:SingleDuct:VAV:Reheat, MECHANICAL_4_Z18_VAVTERMINAL, User-Specified Maximum Reheat Water Flow Rate [m3/s], 2.86233
 Component Sizing Information, Coil:Heating:Electric, MECHANICAL_4_Z18_REHEATCOIL, User-Specified Nominal Capacity [W], 858.69765
 Component Sizing Information, AirTerminal:SingleDuct:VAV:Reheat, OFFICE_PRIVATE_4_Z19_VAVTERMINAL, User-Specified Maximum Air Flow Rate [m3/s], 0.23453
 Component Sizing Information, AirTerminal:SingleDuct:VAV:Reheat, OFFICE_PRIVATE_4_Z19_VAVTERMINAL, Design Size Constant Minimum Air Flow Fraction, 0.20000
 Component Sizing Information, AirTerminal:SingleDuct:VAV:Reheat, OFFICE_PRIVATE_4_Z19_VAVTERMINAL, User-Specified Constant Minimum Air Flow Fraction, 0.20000
 Component Sizing Information, AirTerminal:SingleDuct:VAV:Reheat, OFFICE_PRIVATE_4_Z19_VAVTERMINAL, Design Size Minimum Air Flow Rate [m3/s], 4.69057E-002
 Component Sizing Information, AirTerminal:SingleDuct:VAV:Reheat, OFFICE_PRIVATE_4_Z19_VAVTERMINAL, Design Size Maximum Flow per Zone Floor Area during Reheat [m3/s-m2], 9.99994E-004
 Component Sizing Information, AirTerminal:SingleDuct:VAV:Reheat, OFFICE_PRIVATE_4_Z19_VAVTERMINAL, Design Size Maximum Flow Fraction during Reheat [], 0.20000
 Component Sizing Information, AirTerminal:SingleDuct:VAV:Reheat, OFFICE_PRIVATE_4_Z19_VAVTERMINAL, User-Specified Maximum Reheat Water Flow Rate [m3/s], 3.75246
 Component Sizing Information, Coil:Heating:Electric, OFFICE_PRIVATE_4_Z19_REHEATCOIL, User-Specified Nominal Capacity [W], 1125.73740
 Component Sizing Information, Coil:Cooling:DX:SingleSpeed, LOBBY_0_Z1_COOLINGCOILDX, User-Specified Rated Air Flow Rate [m3/s], 0.38286
 Component Sizing Information, Coil:Cooling:DX:SingleSpeed, LOBBY_0_Z1_COOLINGCOILDX, User-Specified Gross Rated Total Cooling Capacity [W], 7657.26887
 Component Sizing Information, Coil:Cooling:DX:SingleSpeed, LOBBY_0_Z1_COOLINGCOILDX, User-Specified Gross Rated Sensible Heat Ratio, 0.75000
! <DX Cooling Coil Standard Rating Information>, Component Type, Component Name, Standard Rating (Net) Cooling Capacity {W}, Standard Rating Net COP {W/W}, EER {Btu/W-h}, SEER User {Btu/W-h}, SEER Standard {Btu/W-h}, IEER {Btu/W-h}
 DX Cooling Coil Standard Rating Information, Coil:Cooling:DX:SingleSpeed, LOBBY_0_Z1_COOLINGCOILDX, 7360.0, 39.98, 136.43, 54.18, 51.26, 37.2
! <DX Cooling Coil AHRI 2023 Standard Rating Information>, Component Type, Component Name, Standard Rating (Net) Cooling Capacity {W}, Standard Rating Net COP2 {W/W}, EER2 {Btu/W-h}, SEER2 User {Btu/W-h}, SEER2 Standard {Btu/W-h}, IEER 2022 {Btu/W-h}
 DX Cooling Coil AHRI 2023 Standard Rating Information, Coil:Cooling:DX:SingleSpeed, LOBBY_0_Z1_COOLINGCOILDX, 7360.0, 39.98, 136.43, 54.18, 52.72, 37.2
 Component Sizing Information, Coil:Heating:Electric, LOBBY_0_Z1_HEATINGCOIL, User-Specified Nominal Capacity [W], 6125.81510
 Component Sizing Information, Fan:VariableVolume, LOBBY_0_Z1_SUPPLYFAN, User-Specified Maximum Flow Rate [m3/s], 0.38286
 Component Sizing Information, Fan:VariableVolume, LOBBY_0_Z1_SUPPLYFAN, Design Electric Power Consumption [W], 328.16867
 Component Sizing Information, Coil:Cooling:DX:SingleSpeed, CONFERENCE_0_Z2_COOLINGCOILDX, User-Specified Rated Air Flow Rate [m3/s], 0.18789
 Component Sizing Information, Coil:Cooling:DX:SingleSpeed, CONFERENCE_0_Z2_COOLINGCOILDX, User-Specified Gross Rated Total Cooling Capacity [W], 3757.85520
 Component Sizing Information, Coil:Cooling:DX:SingleSpeed, CONFERENCE_0_Z2_COOLINGCOILDX, User-Specified Gross Rated Sensible Heat Ratio, 0.75000
 DX Cooling Coil Standard Rating Information, Coil:Cooling:DX:SingleSpeed, CONFERENCE_0_Z2_COOLINGCOILDX, 3612.0, 39.98, 136.43, 54.18, 51.26, 37.2
 DX Cooling Coil AHRI 2023 Standard Rating Information, Coil:Cooling:DX:SingleSpeed, CONFERENCE_0_Z2_COOLINGCOILDX, 3612.0, 39.98, 136.43, 54.18, 52.72, 37.2
 Component Sizing Information, Coil:Heating:Electric, CONFERENCE_0_Z2_HEATINGCOIL, User-Specified Nominal Capacity [W], 3006.28416
 Component Sizing Information, Fan:VariableVolume, CONFERENCE_0_Z2_SUPPLYFAN, User-Specified Maximum Flow Rate [m3/s], 0.18789
 Component Sizing Information, Fan:VariableVolume, CONFERENCE_0_Z2_SUPPLYFAN, Design Electric Power Consumption [W], 161.05094
 Component Sizing Information, Coil:Cooling:DX:SingleSpeed, STORAGE_0_Z3_COOLINGCOILDX, User-Specified Rated Air Flow Rate [m3/s], 8.68969E-002
 Component Sizing Information, Coil:Cooling:DX:SingleSpeed, STORAGE_0_Z3_COOLINGCOILDX, User-Specified Gross Rated Total Cooling Capacity [W], 1737.93853
 Component Sizing Information, Coil:Cooling:DX:SingleSpeed, STORAGE_0_Z3_COOLINGCOILDX, User-Specified Gross Rated Sensible Heat Ratio, 0.75000
 DX Cooling Coil Standard Rating Information, Coil:Cooling:DX:SingleSpeed, STORAGE_0_Z3_COOLINGCOILDX, 1670.5, 39.98, 136.43, 54.18, 51.26, 37.2
 DX Cooling Coil AHRI 2023 Standard Rating Information, Coil:Cooling:DX:SingleSpeed, STORAGE_0_Z3_COOLINGCOILDX, 1670.5, 39.98, 136.43, 54.18, 52.72, 37.2
 Component Sizing Information, Coil:Heating:Electric, STORAGE_0_Z3_HEATINGCOIL, User-Specified Nominal Capacity [W], 1390.35082
 Component Sizing Information, Fan:VariableVolume, STORAGE_0_Z3_SUPPLYFAN, User-Specified Maximum Flow Rate [m3/s], 8.68969E-002
 Component Sizing Information, Fan:VariableVolume, STORAGE_0_Z3_SUPPLYFAN, Design Electric Power Consumption [W], 74.48308
 Component Sizing Information, Coil:Cooling:DX:SingleSpeed, MECHANICAL_1_Z4_COOLINGCOILDX, User-Specified Rated Air Flow Rate [m3/s], 0.22874
 Component Sizing Information, Coil:Cooling:DX:SingleSpeed, MECHANICAL_1_Z4_COOLINGCOILDX, User-Specified Gross Rated Total Cooling Capacity [W], 4574.75216
 Component Sizing Information, Coil:Cooling:DX:SingleSpeed, MECHANICAL_1_Z4_COOLINGCOILDX, User-Specified Gross Rated Sensible Heat Ratio, 0.75000
 DX Cooling Coil Standard Rating Information, Coil:Cooling:DX:SingleSpeed, MECHANICAL_1_Z4_COOLINGCOILDX, 4397.1, 39.98, 136.43, 54.18, 51.26, 37.2
 DX Cooling Coil AHRI 2023 Standard Rating Information, Coil:Cooling:DX:SingleSpeed, MECHANICAL_1_Z4_COOLINGCOILDX, 4397.1, 39.98, 136.43, 54.18, 52.72, 37.2
 Component Sizing Information, Coil:Heating:Electric, MECHANICAL_1_Z4_HEATINGCOIL, User-Specified Nominal Capacity [W], 3659.80173
 Component Sizing Information, Fan:VariableVolume, MECHANICAL_1_Z4_SUPPLYFAN, User-Specified Maximum Flow Rate [m3/s], 0.22874
 Component Sizing Information, Fan:VariableVolume, MECHANICAL_1_Z4_SUPPLYFAN, Design Electric Power Consumption [W], 196.06081
 Component Sizing Information, Coil:Cooling:DX:SingleSpeed, OFFICE_OPEN_1_Z5_COOLINGCOILDX, User-Specified Rated Air Flow Rate [m3/s], 1.59222
 Component Sizing Information, Coil:Cooling:DX:SingleSpeed, OFFICE_OPEN_1_Z5_COOLINGCOILDX, User-Specified Gross Rated Total Cooling Capacity [W], 31844.47519
 Component Sizing Information, Coil:Cooling:DX:SingleSpeed, OFFICE_OPEN_1_Z5_COOLINGCOILDX, User-Specified Gross Rated Sensible Heat Ratio, 0.75000
 DX Cooling Coil Standard Rating Information, Coil:Cooling:DX:SingleSpeed, OFFICE_OPEN_1_Z5_COOLINGCOILDX, 30608.1, 39.98, 136.43, 54.18, 51.26, 37.2
 DX Cooling Coil AHRI 2023 Standard Rating Information, Coil:Cooling:DX:SingleSpeed, OFFICE_OPEN_1_Z5_COOLINGCOILDX, 30608.1, 39.98, 136.43, 54.18, 52.72, 37.2
 Component Sizing Information, Coil:Heating:Electric, OFFICE_OPEN_1_Z5_HEATINGCOIL, User-Specified Nominal Capacity [W], 25475.58015
 Component Sizing Information, Fan:VariableVolume, OFFICE_OPEN_1_Z5_SUPPLYFAN, User-Specified Maximum Flow Rate [m3/s], 1.59222
 Component Sizing Information, Fan:VariableVolume, OFFICE_OPEN_1_Z5_SUPPLYFAN, Design Electric Power Consumption [W], 1364.76322
 Component Sizing Information, Coil:Cooling:DX:SingleSpeed, OFFICE_PRIVATE_1_Z6_COOLINGCOILDX, User-Specified Rated Air Flow Rate [m3/s], 0.17894
 Component Sizing Information, Coil:Cooling:DX:SingleSpeed, OFFICE_PRIVATE_1_Z6_COOLINGCOILDX, User-Specified Gross Rated Total Cooling Capacity [W], 3578.86587
 Component Sizing Information, Coil:Cooling:DX:SingleSpeed, OFFICE_PRIVATE_1_Z6_COOLINGCOILDX, User-Specified Gross Rated Sensible Heat Ratio, 0.75000
 DX Cooling Coil Standard Rating Information, Coil:Cooling:DX:SingleSpeed, OFFICE_PRIVATE_1_Z6_COOLINGCOILDX, 3439.9, 39.98, 136.43, 54.18, 51.26, 37.2
 DX Cooling Coil AHRI 2023 Standard Rating Information, Coil:Cooling:DX:SingleSpeed, OFFICE_PRIVATE_1_Z6_COOLINGCOILDX, 3439.9, 39.98, 136.43, 54.18, 52.72, 37.2
 Component Sizing Information, Coil:Heating:Electric, OFFICE_PRIVATE_1_Z6_HEATINGCOIL, User-Specified Nominal Capacity [W], 2863.09269
 Component Sizing Information, Fan:VariableVolume, OFFICE_PRIVATE_1_Z6_SUPPLYFAN, User-Specified Maximum Flow Rate [m3/s], 0.17894
 Component Sizing Information, Fan:VariableVolume, OFFICE_PRIVATE_1_Z6_SUPPLYFAN, Design Electric Power Consumption [W], 153.37997
 Component Sizing Information, Coil:Cooling:DX:SingleSpeed, STORAGE_1_Z7_COOLINGCOILDX, User-Specified Rated Air Flow Rate [m3/s], 0.18382
 Component Sizing Information, Coil:Cooling:DX:SingleSpeed, STORAGE_1_Z7_COOLINGCOILDX, User-Specified Gross Rated Total Cooling Capacity [W], 3676.38955
 Component Sizing Information, Coil:Cooling:DX:SingleSpeed, STORAGE_1_Z7_COOLINGCOILDX, User-Specified Gross Rated Sensible Heat Ratio, 0.75000
 DX Cooling Coil Standard Rating Information, Coil:Cooling:DX:SingleSpeed, STORAGE_1_Z7_COOLINGCOILDX, 3533.7, 39.98, 136.43, 54.18, 51.26, 37.2
 DX Cooling Coil AHRI 2023 Standard Rating Information, Coil:Cooling:DX:SingleSpeed, STORAGE_1_Z7_COOLINGCOILDX, 3533.7, 39.98, 136.43, 54.18, 52.72, 37.2
 Component Sizing Information, Coil:Heating:Electric, STORAGE_1_Z7_HEATINGCOIL, User-Specified Nominal Capacity [W], 2941.11164
 Component Sizing Information, Fan:VariableVolume, STORAGE_1_Z7_SUPPLYFAN, User-Specified Maximum Flow Rate [m3/s], 0.18382
 Component Sizing Information, Fan:VariableVolume, STORAGE_1_Z7_SUPPLYFAN, Design Electric Power Consumption [W], 157.55955
 Component Sizing Information, Coil:Cooling:DX:SingleSpeed, LOBBY_2_Z8_COOLINGCOILDX, User-Specified Rated Air Flow Rate [m3/s], 0.29244
 Component Sizing Information, Coil:Cooling:DX:SingleSpeed, LOBBY_2_Z8_COOLINGCOILDX, User-Specified Gross Rated Total Cooling Capacity [W], 5848.89004
 Component Sizing Information, Coil:Cooling:DX:SingleSpeed, LOBBY_2_Z8_COOLINGCOILDX, User-Specified Gross Rated Sensible Heat Ratio, 0.75000
 DX Cooling Coil Standard Rating Information, Coil:Cooling:DX:SingleSpeed, LOBBY_2_Z8_COOLINGCOILDX, 5621.8, 39.98, 136.43, 54.18, 51.26, 37.2
 DX Cooling Coil AHRI 2023 Standard Rating Information, Coil:Cooling:DX:SingleSpeed, LOBBY_2_Z8_COOLINGCOILDX, 5621.8, 39.98, 136.43, 54.18, 52.72, 37.2
 Component Sizing Information, Coil:Heating:Electric, LOBBY_2_Z8_HEATINGCOIL, User-Specified Nominal Capacity [W], 4679.11203
 Component Sizing Information, Fan:VariableVolume, LOBBY_2_Z8_SUPPLYFAN, User-Specified Maximum Flow Rate [m3/s], 0.29244
 Component Sizing Information, Fan:VariableVolume, LOBBY_2_Z8_SUPPLYFAN, Design Electric Power Consumption [W], 250.66672
 Component Sizing Information, Coil:Cooling:DX:SingleSpeed, CONFERENCE_2_Z9_COOLINGCOILDX, User-Specified Rated Air Flow Rate [m3/s], 0.34532
 Component Sizing Information, Coil:Cooling:DX:SingleSpeed, CONFERENCE_2_Z9_COOLINGCOILDX, User-Specified Gross Rated Total Cooling Capacity [W], 6906.35771
 Component Sizing Information, Coil:Cooling:DX:SingleSpeed, CONFERENCE_2_Z9_COOLINGCOILDX, User-Specified Gross Rated Sensible Heat Ratio, 0.75000
 DX Cooling Coil Standard Rating Information, Coil:Cooling:DX:SingleSpeed, CONFERENCE_2_Z9_COOLINGCOILDX, 6638.2, 39.98, 136.43, 54.18, 51.26, 37.2
 DX Cooling Coil AHRI 2023 Standard Rating Information, Coil:Cooling:DX:SingleSpeed, CONFERENCE_2_Z9_COOLINGCOILDX, 6638.2, 39.98, 136.43, 54.18, 52.72, 37.2
 Component Sizing Information, Coil:Heating:Electric, CONFERENCE_2_Z9_HEATINGCOIL, User-Specified Nominal Capacity [W], 5525.08617
 Component Sizing Information, Fan:VariableVolume, CONFERENCE_2_Z9_SUPPLYFAN, User-Specified Maximum Flow Rate [m3/s], 0.34532
 Component Sizing Information, Fan:VariableVolume, CONFERENCE_2_Z9_SUPPLYFAN, Design Electric Power Consumption [W], 295.98676
 Component Sizing Information, Coil:Cooling:DX:SingleSpeed, BREAK_ROOM_2_Z10_COOLINGCOILDX, User-Specified Rated Air Flow Rate [m3/s], 0.35243
 Component Sizing Information, Coil:Cooling:DX:SingleSpeed, BREAK_ROOM_2_Z10_COOLINGCOILDX, User-Specified Gross Rated Total Cooling Capacity [W], 7048.50667
 Component Sizing Information, Coil:Cooling:DX:SingleSpeed, BREAK_ROOM_2_Z10_COOLINGCOILDX, User-Specified Gross Rated Sensible Heat Ratio, 0.75000
 DX Cooling Coil Standard Rating Information, Coil:Cooling:DX:SingleSpeed, BREAK_ROOM_2_Z10_COOLINGCOILDX, 6774.8, 39.98, 136.43, 54.18, 51.26, 37.2
 DX Cooling Coil AHRI 2023 Standard Rating Information, Coil:Cooling:DX:SingleSpeed, BREAK_ROOM_2_Z10_COOLINGCOILDX, 6774.8, 39.98, 136.43, 54.18, 52.72, 37.2
 Component Sizing Information, Coil:Heating:Electric, BREAK_ROOM_2_Z10_HEATINGCOIL, User-Specified Nominal Capacity [W], 5638.80533
 Component Sizing Information, Fan:VariableVolume, BREAK_ROOM_2_Z10_SUPPLYFAN, User-Specified Maximum Flow Rate [m3/s], 0.35243
 Component Sizing Information, Fan:VariableVolume, BREAK_ROOM_2_Z10_SUPPLYFAN, Design Electric Power Consumption [W], 302.07886
 Component Sizing Information, Coil:Cooling:DX:SingleSpeed, OFFICE_OPEN_2_Z11_COOLINGCOILDX, User-Specified Rated Air Flow Rate [m3/s], 2.16620
 Component Sizing Information, Coil:Cooling:DX:SingleSpeed, OFFICE_OPEN_2_Z11_COOLINGCOILDX, User-Specified Gross Rated Total Cooling Capacity [W], 43324.08804
 Component Sizing Information, Coil:Cooling:DX:SingleSpeed, OFFICE_OPEN_2_Z11_COOLINGCOILDX, User-Specified Gross Rated Sensible Heat Ratio, 0.75000
 DX Cooling Coil Standard Rating Information, Coil:Cooling:DX:SingleSpeed, OFFICE_OPEN_2_Z11_COOLINGCOILDX, 41642.0, 39.98, 136.43, 54.18, 51.26, 37.2
 DX Cooling Coil AHRI 2023 Standard Rating Information, Coil:Cooling:DX:SingleSpeed, OFFICE_OPEN_2_Z11_COOLINGCOILDX, 41642.0, 39.98, 136.43, 54.18, 52.72, 37.2
 Component Sizing Information, Coil:Heating:Electric, OFFICE_OPEN_2_Z11_HEATINGCOIL, User-Specified Nominal Capacity [W], 34659.27043
 Component Sizing Information, Fan:VariableVolume, OFFICE_OPEN_2_Z11_SUPPLYFAN, User-Specified Maximum Flow Rate [m3/s], 2.16620
 Component Sizing Information, Fan:VariableVolume, OFFICE_OPEN_2_Z11_SUPPLYFAN, Design Electric Power Consumption [W], 1856.74663
 Component Sizing Information, Coil:Cooling:DX:SingleSpeed, LOBBY_3_Z12_COOLINGCOILDX, User-Specified Rated Air Flow Rate [m3/s], 0.32167
 Component Sizing Information, Coil:Cooling:DX:SingleSpeed, LOBBY_3_Z12_COOLINGCOILDX, User-Specified Gross Rated Total Cooling Capacity [W], 6433.32446
 Component Sizing Information, Coil:Cooling:DX:SingleSpeed, LOBBY_3_Z12_COOLINGCOILDX, User-Specified Gross Rated Sensible Heat Ratio, 0.75000
 DX Cooling Coil Standard Rating Information, Coil:Cooling:DX:SingleSpeed, LOBBY_3_Z12_COOLINGCOILDX, 6183.5, 39.98, 136.43, 54.18, 51.26, 37.2
 DX Cooling Coil AHRI 2023 Standard Rating Information, Coil:Cooling:DX:SingleSpeed, LOBBY_3_Z12_COOLINGCOILDX, 6183.5, 39.98, 136.43, 54.18, 52.72, 37.2
 Component Sizing Information, Coil:Heating:Electric, LOBBY_3_Z12_HEATINGCOIL, User-Specified Nominal Capacity [W], 5146.65957
 Component Sizing Information, Fan:VariableVolume, LOBBY_3_Z12_SUPPLYFAN, User-Specified Maximum Flow Rate [m3/s], 0.32167
 Component Sizing Information, Fan:VariableVolume, LOBBY_3_Z12_SUPPLYFAN, Design Electric Power Consumption [W], 275.71391
 Component Sizing Information, Coil:Cooling:DX:SingleSpeed, CONFERENCE_3_Z13_COOLINGCOILDX, User-Specified Rated Air Flow Rate [m3/s], 0.43694
 Component Sizing Information, Coil:Cooling:DX:SingleSpeed, CONFERENCE_3_Z13_COOLINGCOILDX, User-Specified Gross Rated Total Cooling Capacity [W], 8738.79147
 Component Sizing Information, Coil:Cooling:DX:SingleSpeed, CONFERENCE_3_Z13_COOLINGCOILDX, User-Specified Gross Rated Sensible Heat Ratio, 0.75000
 DX Cooling Coil Standard Rating Information, Coil:Cooling:DX:SingleSpeed, CONFERENCE_3_Z13_COOLINGCOILDX, 8399.5, 39.98, 136.43, 54.18, 51.26, 37.2
 DX Cooling Coil AHRI 2023 Standard Rating Information, Coil:Cooling:DX:SingleSpeed, CONFERENCE_3_Z13_COOLINGCOILDX, 8399.5, 39.98, 136.43, 54.18, 52.72, 37.2
 Component Sizing Information, Coil:Heating:Electric, CONFERENCE_3_Z13_HEATINGCOIL, User-Specified Nominal Capacity [W], 6991.03318
 Component Sizing Information, Fan:VariableVolume, CONFERENCE_3_Z13_SUPPLYFAN, User-Specified Maximum Flow Rate [m3/s], 0.43694
 Component Sizing Information, Fan:VariableVolume, CONFERENCE_3_Z13_SUPPLYFAN, Design Electric Power Consumption [W], 374.51963
 Component Sizing Information, Coil:Cooling:DX:SingleSpeed, MECHANICAL_3_Z14_COOLINGCOILDX, User-Specified Rated Air Flow Rate [m3/s], 0.36640
 Component Sizing Information, Coil:Cooling:DX:SingleSpeed, MECHANICAL_3_Z14_COOLINGCOILDX, User-Specified Gross Rated Total Cooling Capacity [W], 7327.90236
 Component Sizing Information, Coil:Cooling:DX:SingleSpeed, MECHANICAL_3_Z14_COOLINGCOILDX, User-Specified Gross Rated Sensible Heat Ratio, 0.75000
 DX Cooling Coil Standard Rating Information, Coil:Cooling:DX:SingleSpeed, MECHANICAL_3_Z14_COOLINGCOILDX, 7043.4, 39.98, 136.43, 54.18, 51.26, 37.2
 DX Cooling Coil AHRI 2023 Standard Rating Information, Coil:Cooling:DX:SingleSpeed, MECHANICAL_3_Z14_COOLINGCOILDX, 7043.4, 39.98, 136.43, 54.18, 52.72, 37.2
 Component Sizing Information, Coil:Heating:Electric, MECHANICAL_3_Z14_HEATINGCOIL, User-Specified Nominal Capacity [W], 5862.32189
 Component Sizing Information, Fan:VariableVolume, MECHANICAL_3_Z14_SUPPLYFAN, User-Specified Maximum Flow Rate [m3/s], 0.36640
 Component Sizing Information, Fan:VariableVolume, MECHANICAL_3_Z14_SUPPLYFAN, Design Electric Power Consumption [W], 314.05296
 Component Sizing Information, Coil:Cooling:DX:SingleSpeed, STORAGE_3_Z15_COOLINGCOILDX, User-Specified Rated Air Flow Rate [m3/s], 0.15344
 Component Sizing Information, Coil:Cooling:DX:SingleSpeed, STORAGE_3_Z15_COOLINGCOILDX, User-Specified Gross Rated Total Cooling Capacity [W], 3068.89740
 Component Sizing Information, Coil:Cooling:DX:SingleSpeed, STORAGE_3_Z15_COOLINGCOILDX, User-Specified Gross Rated Sensible Heat Ratio, 0.75000
 DX Cooling Coil Standard Rating Information, Coil:Cooling:DX:SingleSpeed, STORAGE_3_Z15_COOLINGCOILDX, 2949.7, 39.98, 136.43, 54.18, 51.26, 37.2
 DX Cooling Coil AHRI 2023 Standard Rating Information, Coil:Cooling:DX:SingleSpeed, STORAGE_3_Z15_COOLINGCOILDX, 2949.7, 39.98, 136.43, 54.18, 52.72, 37.2
 Component Sizing Information, Coil:Heating:Electric, STORAGE_3_Z15_HEATINGCOIL, User-Specified Nominal Capacity [W], 2455.11792
 Component Sizing Information, Fan:VariableVolume, STORAGE_3_Z15_SUPPLYFAN, User-Specified Maximum Flow Rate [m3/s], 0.15344
 Component Sizing Information, Fan:VariableVolume, STORAGE_3_Z15_SUPPLYFAN, Design Electric Power Consumption [W], 131.52417
 Component Sizing Information, Coil:Cooling:DX:SingleSpeed, LOBBY_4_Z16_COOLINGCOILDX, User-Specified Rated Air Flow Rate [m3/s], 0.84516
 Component Sizing Information, Coil:Cooling:DX:SingleSpeed, LOBBY_4_Z16_COOLINGCOILDX, User-Specified Gross Rated Total Cooling Capacity [W], 16903.13694
 Component Sizing Information, Coil:Cooling:DX:SingleSpeed, LOBBY_4_Z16_COOLINGCOILDX, User-Specified Gross Rated Sensible Heat Ratio, 0.75000
 DX Cooling Coil Standard Rating Information, Coil:Cooling:DX:SingleSpeed, LOBBY_4_Z16_COOLINGCOILDX, 16246.9, 39.98, 136.43, 54.18, 51.26, 37.2
 DX Cooling Coil AHRI 2023 Standard Rating Information, Coil:Cooling:DX:SingleSpeed, LOBBY_4_Z16_COOLINGCOILDX, 16246.9, 39.98, 136.43, 54.18, 52.72, 37.2
 Component Sizing Information, Coil:Heating:Electric, LOBBY_4_Z16_HEATINGCOIL, User-Specified Nominal Capacity [W], 13522.50955
 Component Sizing Information, Fan:VariableVolume, LOBBY_4_Z16_SUPPLYFAN, User-Specified Maximum Flow Rate [m3/s], 0.84516
 Component Sizing Information, Fan:VariableVolume, LOBBY_4_Z16_SUPPLYFAN, Design Electric Power Consumption [W], 724.42015
 Component Sizing Information, Coil:Cooling:DX:SingleSpeed, CONFERENCE_4_Z17_COOLINGCOILDX, User-Specified Rated Air Flow Rate [m3/s], 0.35009
 Component Sizing Information, Coil:Cooling:DX:SingleSpeed, CONFERENCE_4_Z17_COOLINGCOILDX, User-Specified Gross Rated Total Cooling Capacity [W], 7001.70302
 Component Sizing Information, Coil:Cooling:DX:SingleSpeed, CONFERENCE_4_Z17_COOLINGCOILDX, User-Specified Gross Rated Sensible Heat Ratio, 0.75000
 DX Cooling Coil Standard Rating Information, Coil:Cooling:DX:SingleSpeed, CONFERENCE_4_Z17_COOLINGCOILDX, 6729.9, 39.98, 136.43, 54.18, 51.26, 37.2
 DX Cooling Coil AHRI 2023 Standard Rating Information, Coil:Cooling:DX:SingleSpeed, CONFERENCE_4_Z17_COOLINGCOILDX, 6729.9, 39.98, 136.43, 54.18, 52.72, 37.2
 Component Sizing Information, Coil:Heating:Electric, CONFERENCE_4_Z17_HEATINGCOIL, User-Specified Nominal Capacity [W], 5601.36242
 Component Sizing Information, Fan:VariableVolume, CONFERENCE_4_Z17_SUPPLYFAN, User-Specified Maximum Flow Rate [m3/s], 0.35009
 Component Sizing Information, Fan:VariableVolume, CONFERENCE_4_Z17_SUPPLYFAN, Design Electric Power Consumption [W], 300.07299
 Component Sizing Information, Coil:Cooling:DX:SingleSpeed, MECHANICAL_4_Z18_COOLINGCOILDX, User-Specified Rated Air Flow Rate [m3/s], 0.17890
 Component Sizing Information, Coil:Cooling:DX:SingleSpeed, MECHANICAL_4_Z18_COOLINGCOILDX, User-Specified Gross Rated Total Cooling Capacity [W], 3577.90686
 Component Sizing Information, Coil:Cooling:DX:SingleSpeed, MECHANICAL_4_Z18_COOLINGCOILDX, User-Specified Gross Rated Sensible Heat Ratio, 0.75000
 DX Cooling Coil Standard Rating Information, Coil:Cooling:DX:SingleSpeed, MECHANICAL_4_Z18_COOLINGCOILDX, 3439.0, 39.98, 136.43, 54.18, 51.26, 37.2
 DX Cooling Coil AHRI 2023 Standard Rating Information, Coil:Cooling:DX:SingleSpeed, MECHANICAL_4_Z18_COOLINGCOILDX, 3439.0, 39.98, 136.43, 54.18, 52.72, 37.2
 Component Sizing Information, Coil:Heating:Electric, MECHANICAL_4_Z18_HEATINGCOIL, User-Specified Nominal Capacity [W], 2862.32549
 Component Sizing Information, Fan:VariableVolume, MECHANICAL_4_Z18_SUPPLYFAN, User-Specified Maximum Flow Rate [m3/s], 0.17890
 Component Sizing Information, Fan:VariableVolume, MECHANICAL_4_Z18_SUPPLYFAN, Design Electric Power Consumption [W], 153.33887
 Component Sizing Information, Coil:Cooling:DX:SingleSpeed, OFFICE_PRIVATE_4_Z19_COOLINGCOILDX, User-Specified Rated Air Flow Rate [m3/s], 0.23453
 Component Sizing Information, Coil:Cooling:DX:SingleSpeed, OFFICE_PRIVATE_4_Z19_COOLINGCOILDX, User-Specified Gross Rated Total Cooling Capacity [W], 4690.57248
 Component Sizing Information, Coil:Cooling:DX:SingleSpeed, OFFICE_PRIVATE_4_Z19_COOLINGCOILDX, User-Specified Gross Rated Sensible Heat Ratio, 0.75000
 DX Cooling Coil Standard Rating Information, Coil:Cooling:DX:SingleSpeed, OFFICE_PRIVATE_4_Z19_COOLINGCOILDX, 4508.5, 39.98, 136.43, 54.18, 51.26, 37.2
 DX Cooling Coil AHRI 2023 Standard Rating Information, Coil:Cooling:DX:SingleSpeed, OFFICE_PRIVATE_4_Z19_COOLINGCOILDX, 4508.5, 39.98, 136.43, 54.18, 52.72, 37.2
 Component Sizing Information, Coil:Heating:Electric, OFFICE_PRIVATE_4_Z19_HEATINGCOIL, User-Specified Nominal Capacity [W], 3752.45799
 Component Sizing Information, Fan:VariableVolume, OFFICE_PRIVATE_4_Z19_SUPPLYFAN, User-Specified Maximum Flow Rate [m3/s], 0.23453
 Component Sizing Information, Fan:VariableVolume, OFFICE_PRIVATE_4_Z19_SUPPLYFAN, Design Electric Power Consumption [W], 201.02454
! <Environment>,Environment Name,Environment Type, Start Date, End Date, Start DayOfWeek, Duration {#days}, Source:Start DayOfWeek,  Use Daylight Saving, Use Holidays, Apply Weekend Holiday Rule,  Use Rain Values, Use Snow Values, Sky Temperature Model
! <Environment:Special Days>, Special Day Name, Special Day Type, Source, Start Date, Duration {#days}
! <Environment:Daylight Saving>, Daylight Saving Indicator, Source, Start Date, End Date
! <Environment:WarmupDays>, NumberofWarmupDays
Environment,YEAR ROUND RUN PERIOD,WeatherFileRunPeriod,01/01/2017,12/31/2017,Sunday,365,Use RunPeriod Specified Day,Yes,Yes,Yes,Yes,Yes,Clark and Allen
Environment:Daylight Saving,No,
! <Sky Daylight Factors>, Sky Type, MonthAndDay, Daylighting Control Name, Enclosure Name, Window Name, Reference Point, Daylight Factor
 Sky Daylight Factors,Clear Sky,01/01,LOBBY_0_DAYLIGHT,LOBBY_0,LOBBY_0_WINDOW_1,LOBBY_0_REFERENCEPOINT1,3.9142E-003
 Sky Daylight Factors,Clear Turbid Sky,01/01,LOBBY_0_DAYLIGHT,LOBBY_0,LOBBY_0_WINDOW_1,LOBBY_0_REFERENCEPOINT1,4.2243E-003
 Sky Daylight Factors,Intermediate Sky,01/01,LOBBY_0_DAYLIGHT,LOBBY_0,LOBBY_0_WINDOW_1,LOBBY_0_REFERENCEPOINT1,2.8019E-003
 Sky Daylight Factors,Overcast Sky,01/01,LOBBY_0_DAYLIGHT,LOBBY_0,LOBBY_0_WINDOW_1,LOBBY_0_REFERENCEPOINT1,1.5548E-003
 Sky Daylight Factors,Clear Sky,01/01,LOBBY_0_DAYLIGHT,LOBBY_0,LOBBY_0_WINDOW_2,LOBBY_0_REFERENCEPOINT1,5.6329E-003
 Sky Daylight Factors,Clear Turbid Sky,01/01,LOBBY_0_DAYLIGHT,LOBBY_0,LOBBY_0_WINDOW_2,LOBBY_0_REFERENCEPOINT1,5.2406E-003
 Sky Daylight Factors,Intermediate Sky,01/01,LOBBY_0_DAYLIGHT,LOBBY_0,LOBBY_0_WINDOW_2,LOBBY_0_REFERENCEPOINT1,5.3405E-003
[...]
 Sky Daylight Factors,Clear Sky,01/01,CONFERENCE_2_DAYLIGHT,CONFERENCE_2,CONFERENCE_2_WINDOW_4,CONFERENCE_2_REFERENCEPOINT1,5.3036E-003
 Sky Daylight Factors,Clear Turbid Sky,01/01,CONFERENCE_2_DAYLIGHT,CONFERENCE_2,CONFERENCE_2_WINDOW_4,CONFERENCE_2_REFERENCEPOINT1,4.9854E-003
 Sky Daylight Factors,Intermediate Sky,01/01,CONFERENCE_2_DAYLIGHT,CONFERENCE_2,CONFERENCE_2_WINDOW_4,CONFERENCE_2_REFERENCEPOINT1,5.0198E-003
 Sky Daylight Factors,Overcast Sky,01/01,CONFERENCE_2_DAYLIGHT,CONFERENCE_2,CONFERENCE_2_WINDOW_4,CONFERENCE_2_REFERENCEPOINT1,4.3105E-003
 Sky Daylight Factors,Clear Sky,01/01,BREAK_ROOM_2_DAYLIGHT,BREAK_ROOM_2,BREAK_ROOM_2_WINDOW_1,BREAK_ROOM_2_REFERENCEPOINT1,5.7883E-003
 Sky Daylight Factors,Clear Turbid Sky,01/01,BREAK_ROOM_2_DAYLIGHT,BREAK_ROOM_2,BREAK_ROOM_2_WINDOW_1,BREAK_ROOM_2_REFERENCEPOINT1,6.4435E-003
 Sky Daylight Factors,Intermediate Sky,01/01,BREAK_ROOM_2_DAYLIGHT,BREAK_ROOM_2,BREAK_ROOM_2_WINDOW_1,BREAK_ROOM_2_REFERENCEPOINT1,4.1168E-003
 Sky Daylight Factors,Overcast Sky,01/01,BREAK_ROOM_2_DAYLIGHT,BREAK_ROOM_2,BREAK_ROOM_2_WINDOW_1,BREAK_ROOM_2_REFERENCEPOINT1,2.1530E-003
 Sky Daylight Factors,Clear Sky,01/01,BREAK_ROOM_2_DAYLIGHT,BREAK_ROOM_2,BREAK_ROOM_2_WINDOW_2,BREAK_ROOM_2_REFERENCEPOINT1,6.2240E-003
 Sky Daylight Factors,Clear Turbid Sky,01/01,BREAK_ROOM_2_DAYLIGHT,BREAK_ROOM_2,BREAK_ROOM_2_WINDOW_2,BREAK_ROOM_2_REFERENCEPOINT1,5.8900E-003
 Sky Daylight Factors,Intermediate Sky,01/01,BREAK_ROOM_2_DAYLIGHT,BREAK_ROOM_2,BREAK_ROOM_2_WINDOW_2,BREAK_ROOM_2_REFERENCEPOINT1,5.6296E-003
 Sky Daylight Factors,Overcast Sky,01/01,BREAK_ROOM_2_DAYLIGHT,BREAK_ROOM_2,BREAK_ROOM_2_WINDOW_2,BREAK_ROOM_2_REFERENCEPOINT1,4.3163E-003
 Sky Daylight Factors,Clear Sky,01/01,BREAK_ROOM_2_DAYLIGHT,BREAK_ROOM_2,BREAK_ROOM_2_WINDOW_3,BREAK_ROOM_2_REFERENCEPOINT1,3.0581E-003
 Sky Daylight Factors,Clear Turbid Sky,01/01,BREAK_ROOM_2_DAYLIGHT,BREAK_ROOM_2,BREAK_ROOM_2_WINDOW_3,BREAK_ROOM_2_REFERENCEPOINT1,2.4947E-003
 Sky Daylight Factors,Intermediate Sky,01/01,BREAK_ROOM_2_DAYLIGHT,BREAK_ROOM_2,BREAK_ROOM_2_WINDOW_3,BREAK_ROOM_2_REFERENCEPOINT1,2.1465E-003
 Sky Daylight Factors,Overcast Sky,01/01,BREAK_ROOM_2_DAYLIGHT,BREAK_ROOM_2,BREAK_ROOM_2_WINDOW_3,BREAK_ROOM_2_REFERENCEPOINT1,2.8682E-003
 Sky Daylight Factors,Clear Sky,01/01,BREAK_ROOM_2_DAYLIGHT,BREAK_ROOM_2,BREAK_ROOM_2_WINDOW_4,BREAK_ROOM_2_REFERENCEPOINT1,4.6910E-003
 Sky Daylight Factors,Clear Turbid Sky,01/01,BREAK_ROOM_2_DAYLIGHT,BREAK_ROOM_2,BREAK_ROOM_2_WINDOW_4,BREAK_ROOM_2_REFERENCEPOINT1,4.5439E-003
 Sky Daylight Factors,Intermediate Sky,01/01,BREAK_ROOM_2_DAYLIGHT,BREAK_ROOM_2,BREAK_ROOM_2_WINDOW_4,BREAK_ROOM_2_REFERENCEPOINT1,3.9784E-003
 Sky Daylight Factors,Overcast Sky,01/01,BREAK_ROOM_2_DAYLIGHT,BREAK_ROOM_2,BREAK_ROOM_2_WINDOW_4,BREAK_ROOM_2_REFERENCEPOINT1,2.7884E-003
 Sky Daylight Factors,Clear Sky,01/01,OFFICE_OPEN_2_DAYLIGHT,OFFICE_OPEN_2,OFFICE_OPEN_2_WINDOW_1,OFFICE_OPEN_2_REFERENCEPOINT1,3.8555E-003
 Sky Daylight Factors,Clear Turbid Sky,01/01,OFFICE_OPEN_2_DAYLIGHT,OFFICE_OPEN_2,OFFICE_OPEN_2_WINDOW_1,OFFICE_OPEN_2_REFERENCEPOINT1,4.2981E-003
 Sky Daylight Factors,Intermediate Sky,01/01,OFFICE_OPEN_2_DAYLIGHT,OFFICE_OPEN_2,OFFICE_OPEN_2_WINDOW_1,OFFICE_OPEN_2_REFERENCEPOINT1,2.7270E-003
 Sky Daylight Factors,Overcast Sky,01/01,OFFICE_OPEN_2_DAYLIGHT,OFFICE_OPEN_2,OFFICE_OPEN_2_WINDOW_1,OFFICE_OPEN_2_REFERENCEPOINT1,1.4014E-003
 Sky Daylight Factors,Clear Sky,01/01,OFFICE_OPEN_2_DAYLIGHT,OFFICE_OPEN_2,OFFICE_OPEN_2_WINDOW_2,OFFICE_OPEN_2_REFERENCEPOINT1,2.1916E-003
 Sky Daylight Factors,Clear Turbid Sky,01/01,OFFICE_OPEN_2_DAYLIGHT,OFFICE_OPEN_2,OFFICE_OPEN_2_WINDOW_2,OFFICE_OPEN_2_REFERENCEPOINT1,2.1325E-003
 Sky Daylight Factors,Intermediate Sky,01/01,OFFICE_OPEN_2_DAYLIGHT,OFFICE_OPEN_2,OFFICE_OPEN_2_WINDOW_2,OFFICE_OPEN_2_REFERENCEPOINT1,2.2731E-003
 Sky Daylight Factors,Overcast Sky,01/01,OFFICE_OPEN_2_DAYLIGHT,OFFICE_OPEN_2,OFFICE_OPEN_2_WINDOW_2,OFFICE_OPEN_2_REFERENCEPOINT1,2.0941E-003
 Sky Daylight Factors,Clear Sky,01/01,OFFICE_OPEN_2_DAYLIGHT,OFFICE_OPEN_2,OFFICE_OPEN_2_WINDOW_3,OFFICE_OPEN_2_REFERENCEPOINT1,2.5989E-003
 Sky Daylight Factors,Clear Turbid Sky,01/01,OFFICE_OPEN_2_DAYLIGHT,OFFICE_OPEN_2,OFFICE_OPEN_2_WINDOW_3,OFFICE_OPEN_2_REFERENCEPOINT1,2.1201E-003
 Sky Daylight Factors,Intermediate Sky,01/01,OFFICE_OPEN_2_DAYLIGHT,OFFICE_OPEN_2,OFFICE_OPEN_2_WINDOW_3,OFFICE_OPEN_2_REFERENCEPOINT1,1.9210E-003
 Sky Daylight Factors,Overcast Sky,01/01,OFFICE_OPEN_2_DAYLIGHT,OFFICE_OPEN_2,OFFICE_OPEN_2_WINDOW_3,OFFICE_OPEN_2_REFERENCEPOINT1,2.6957E-003
 Sky Daylight Factors,Clear Sky,01/01,OFFICE_OPEN_2_DAYLIGHT,OFFICE_OPEN_2,OFFICE_OPEN_2_WINDOW_4,OFFICE_OPEN_2_REFERENCEPOINT1,2.6615E-003
 Sky Daylight Factors,Clear Turbid Sky,01/01,OFFICE_OPEN_2_DAYLIGHT,OFFICE_OPEN_2,OFFICE_OPEN_2_WINDOW_4,OFFICE_OPEN_2_REFERENCEPOINT1,2.4735E-003
 Sky Daylight Factors,Intermediate Sky,01/01,OFFICE_OPEN_2_DAYLIGHT,OFFICE_OPEN_2,OFFICE_OPEN_2_WINDOW_4,OFFICE_OPEN_2_REFERENCEPOINT1,2.5024E-003
 Sky Daylight Factors,Overcast Sky,01/01,OFFICE_OPEN_2_DAYLIGHT,OFFICE_OPEN_2,OFFICE_OPEN_2_WINDOW_4,OFFICE_OPEN_2_REFERENCEPOINT1,2.0667E-003
 Sky Daylight Factors,Clear Sky,01/01,LOBBY_3_DAYLIGHT,LOBBY_3,LOBBY_3_WINDOW_1,LOBBY_3_REFERENCEPOINT1,5.0730E-003
 Sky Daylight Factors,Clear Turbid Sky,01/01,LOBBY_3_DAYLIGHT,LOBBY_3,LOBBY_3_WINDOW_1,LOBBY_3_REFERENCEPOINT1,5.7103E-003
 Sky Daylight Factors,Intermediate Sky,01/01,LOBBY_3_DAYLIGHT,LOBBY_3,LOBBY_3_WINDOW_1,LOBBY_3_REFERENCEPOINT1,3.5933E-003
 Sky Daylight Factors,Overcast Sky,01/01,LOBBY_3_DAYLIGHT,LOBBY_3,LOBBY_3_WINDOW_1,LOBBY_3_REFERENCEPOINT1,1.9476E-003
 Sky Daylight Factors,Clear Sky,01/01,LOBBY_3_DAYLIGHT,LOBBY_3,LOBBY_3_WINDOW_2,LOBBY_3_REFERENCEPOINT1,4.3747E-003
 Sky Daylight Factors,Clear Turbid Sky,01/01,LOBBY_3_DAYLIGHT,LOBBY_3,LOBBY_3_WINDOW_2,LOBBY_3_REFERENCEPOINT1,3.8923E-003
 Sky Daylight Factors,Intermediate Sky,01/01,LOBBY_3_DAYLIGHT,LOBBY_3,LOBBY_3_WINDOW_2,LOBBY_3_REFERENCEPOINT1,4.5521E-003
 Sky Daylight Factors,Overcast Sky,01/01,LOBBY_3_DAYLIGHT,LOBBY_3,LOBBY_3_WINDOW_2,LOBBY_3_REFERENCEPOINT1,4.4585E-003
 Sky Daylight Factors,Clear Sky,01/01,LOBBY_3_DAYLIGHT,LOBBY_3,LOBBY_3_WINDOW_3,LOBBY_3_REFERENCEPOINT1,4.1782E-003
 Sky Daylight Factors,Clear Turbid Sky,01/01,LOBBY_3_DAYLIGHT,LOBBY_3,LOBBY_3_WINDOW_3,LOBBY_3_REFERENCEPOINT1,3.4143E-003
 Sky Daylight Factors,Intermediate Sky,01/01,LOBBY_3_DAYLIGHT,LOBBY_3,LOBBY_3_WINDOW_3,LOBBY_3_REFERENCEPOINT1,3.1492E-003
 Sky Daylight Factors,Overcast Sky,01/01,LOBBY_3_DAYLIGHT,LOBBY_3,LOBBY_3_WINDOW_3,LOBBY_3_REFERENCEPOINT1,4.3990E-003
 Sky Daylight Factors,Clear Sky,01/01,LOBBY_3_DAYLIGHT,LOBBY_3,LOBBY_3_WINDOW_4,LOBBY_3_REFERENCEPOINT1,6.2024E-003
 Sky Daylight Factors,Clear Turbid Sky,01/01,LOBBY_3_DAYLIGHT,LOBBY_3,LOBBY_3_WINDOW_4,LOBBY_3_REFERENCEPOINT1,5.8013E-003
 Sky Daylight Factors,Intermediate Sky,01/01,LOBBY_3_DAYLIGHT,LOBBY_3,LOBBY_3_WINDOW_4,LOBBY_3_REFERENCEPOINT1,5.8268E-003
 Sky Daylight Factors,Overcast Sky,01/01,LOBBY_3_DAYLIGHT,LOBBY_3,LOBBY_3_WINDOW_4,LOBBY_3_REFERENCEPOINT1,4.9648E-003
 Sky Daylight Factors,Clear Sky,01/01,CONFERENCE_3_DAYLIGHT,CONFERENCE_3,CONFERENCE_3_WINDOW_1,CONFERENCE_3_REFERENCEPOINT1,5.7634E-003
 Sky Daylight Factors,Clear Turbid Sky,01/01,CONFERENCE_3_DAYLIGHT,CONFERENCE_3,CONFERENCE_3_WINDOW_1,CONFERENCE_3_REFERENCEPOINT1,6.4252E-003
 Sky Daylight Factors,Intermediate Sky,01/01,CONFERENCE_3_DAYLIGHT,CONFERENCE_3,CONFERENCE_3_WINDOW_1,CONFERENCE_3_REFERENCEPOINT1,4.0750E-003
 Sky Daylight Factors,Overcast Sky,01/01,CONFERENCE_3_DAYLIGHT,CONFERENCE_3,CONFERENCE_3_WINDOW_1,CONFERENCE_3_REFERENCEPOINT1,2.0915E-003
 Sky Daylight Factors,Clear Sky,01/01,CONFERENCE_3_DAYLIGHT,CONFERENCE_3,CONFERENCE_3_WINDOW_2,CONFERENCE_3_REFERENCEPOINT1,5.5408E-003
 Sky Daylight Factors,Clear Turbid Sky,01/01,CONFERENCE_3_DAYLIGHT,CONFERENCE_3,CONFERENCE_3_WINDOW_2,CONFERENCE_3_REFERENCEPOINT1,5.2123E-003
 Sky Daylight Factors,Intermediate Sky,01/01,CONFERENCE_3_DAYLIGHT,CONFERENCE_3,CONFERENCE_3_WINDOW_2,CONFERENCE_3_REFERENCEPOINT1,5.3233E-003
 Sky Daylight Factors,Overcast Sky,01/01,CONFERENCE_3_DAYLIGHT,CONFERENCE_3,CONFERENCE_3_WINDOW_2,CONFERENCE_3_REFERENCEPOINT1,4.5195E-003
 Sky Daylight Factors,Clear Sky,01/01,CONFERENCE_3_DAYLIGHT,CONFERENCE_3,CONFERENCE_3_WINDOW_3,CONFERENCE_3_REFERENCEPOINT1,3.7937E-003
 Sky Daylight Factors,Clear Turbid Sky,01/01,CONFERENCE_3_DAYLIGHT,CONFERENCE_3,CONFERENCE_3_WINDOW_3,CONFERENCE_3_REFERENCEPOINT1,3.0982E-003
 Sky Daylight Factors,Intermediate Sky,01/01,CONFERENCE_3_DAYLIGHT,CONFERENCE_3,CONFERENCE_3_WINDOW_3,CONFERENCE_3_REFERENCEPOINT1,2.8340E-003
 Sky Daylight Factors,Overcast Sky,01/01,CONFERENCE_3_DAYLIGHT,CONFERENCE_3,CONFERENCE_3_WINDOW_3,CONFERENCE_3_REFERENCEPOINT1,3.9811E-003
 Sky Daylight Factors,Clear Sky,01/01,CONFERENCE_3_DAYLIGHT,CONFERENCE_3,CONFERENCE_3_WINDOW_4,CONFERENCE_3_REFERENCEPOINT1,6.1132E-003
 Sky Daylight Factors,Clear Turbid Sky,01/01,CONFERENCE_3_DAYLIGHT,CONFERENCE_3,CONFERENCE_3_WINDOW_4,CONFERENCE_3_REFERENCEPOINT1,5.7377E-003
 Sky Daylight Factors,Intermediate Sky,01/01,CONFERENCE_3_DAYLIGHT,CONFERENCE_3,CONFERENCE_3_WINDOW_4,CONFERENCE_3_REFERENCEPOINT1,5.7617E-003
 Sky Daylight Factors,Overcast Sky,01/01,CONFERENCE_3_DAYLIGHT,CONFERENCE_3,CONFERENCE_3_WINDOW_4,CONFERENCE_3_REFERENCEPOINT1,4.9548E-003
 Sky Daylight Factors,Clear Sky,01/01,LOBBY_4_DAYLIGHT,LOBBY_4,LOBBY_4_WINDOW_1,LOBBY_4_REFERENCEPOINT1,5.1841E-003
 Sky Daylight Factors,Clear Turbid Sky,01/01,LOBBY_4_DAYLIGHT,LOBBY_4,LOBBY_4_WINDOW_1,LOBBY_4_REFERENCEPOINT1,5.7715E-003
 Sky Daylight Factors,Intermediate Sky,01/01,LOBBY_4_DAYLIGHT,LOBBY_4,LOBBY_4_WINDOW_1,LOBBY_4_REFERENCEPOINT1,3.6855E-003
 Sky Daylight Factors,Overcast Sky,01/01,LOBBY_4_DAYLIGHT,LOBBY_4,LOBBY_4_WINDOW_1,LOBBY_4_REFERENCEPOINT1,1.9249E-003
 Sky Daylight Factors,Clear Sky,01/01,LOBBY_4_DAYLIGHT,LOBBY_4,LOBBY_4_WINDOW_2,LOBBY_4_REFERENCEPOINT1,1.5866E-003
 Sky Daylight Factors,Clear Turbid Sky,01/01,LOBBY_4_DAYLIGHT,LOBBY_4,LOBBY_4_WINDOW_2,LOBBY_4_REFERENCEPOINT1,1.5903E-003
 Sky Daylight Factors,Intermediate Sky,01/01,LOBBY_4_DAYLIGHT,LOBBY_4,LOBBY_4_WINDOW_2,LOBBY_4_REFERENCEPOINT1,1.6292E-003
 Sky Daylight Factors,Overcast Sky,01/01,LOBBY_4_DAYLIGHT,LOBBY_4,LOBBY_4_WINDOW_2,LOBBY_4_REFERENCEPOINT1,1.5954E-003
 Sky Daylight Factors,Clear Sky,01/01,LOBBY_4_DAYLIGHT,LOBBY_4,LOBBY_4_WINDOW_3,LOBBY_4_REFERENCEPOINT1,3.3808E-003
 Sky Daylight Factors,Clear Turbid Sky,01/01,LOBBY_4_DAYLIGHT,LOBBY_4,LOBBY_4_WINDOW_3,LOBBY_4_REFERENCEPOINT1,2.6958E-003
 Sky Daylight Factors,Intermediate Sky,01/01,LOBBY_4_DAYLIGHT,LOBBY_4,LOBBY_4_WINDOW_3,LOBBY_4_REFERENCEPOINT1,2.3872E-003
 Sky Daylight Factors,Overcast Sky,01/01,LOBBY_4_DAYLIGHT,LOBBY_4,LOBBY_4_WINDOW_3,LOBBY_4_REFERENCEPOINT1,3.4150E-003
 Sky Daylight Factors,Clear Sky,01/01,LOBBY_4_DAYLIGHT,LOBBY_4,LOBBY_4_WINDOW_4,LOBBY_4_REFERENCEPOINT1,4.5408E-003
 Sky Daylight Factors,Clear Turbid Sky,01/01,LOBBY_4_DAYLIGHT,LOBBY_4,LOBBY_4_WINDOW_4,LOBBY_4_REFERENCEPOINT1,4.2530E-003
 Sky Daylight Factors,Intermediate Sky,01/01,LOBBY_4_DAYLIGHT,LOBBY_4,LOBBY_4_WINDOW_4,LOBBY_4_REFERENCEPOINT1,4.2713E-003
 Sky Daylight Factors,Overcast Sky,01/01,LOBBY_4_DAYLIGHT,LOBBY_4,LOBBY_4_WINDOW_4,LOBBY_4_REFERENCEPOINT1,3.6528E-003
 Sky Daylight Factors,Clear Sky,01/01,CONFERENCE_4_DAYLIGHT,CONFERENCE_4,CONFERENCE_4_WINDOW_1,CONFERENCE_4_REFERENCEPOINT1,6.7709E-003
 Sky Daylight Factors,Clear Turbid Sky,01/01,CONFERENCE_4_DAYLIGHT,CONFERENCE_4,CONFERENCE_4_WINDOW_1,CONFERENCE_4_REFERENCEPOINT1,7.5567E-003
 Sky Daylight Factors,Intermediate Sky,01/01,CONFERENCE_4_DAYLIGHT,CONFERENCE_4,CONFERENCE_4_WINDOW_1,CONFERENCE_4_REFERENCEPOINT1,4.7932E-003
 Sky Daylight Factors,Overcast Sky,01/01,CONFERENCE_4_DAYLIGHT,CONFERENCE_4,CONFERENCE_4_WINDOW_1,CONFERENCE_4_REFERENCEPOINT1,2.4887E-003
 Sky Daylight Factors,Clear Sky,01/01,CONFERENCE_4_DAYLIGHT,CONFERENCE_4,CONFERENCE_4_WINDOW_2,CONFERENCE_4_REFERENCEPOINT1,5.9154E-003
 Sky Daylight Factors,Clear Turbid Sky,01/01,CONFERENCE_4_DAYLIGHT,CONFERENCE_4,CONFERENCE_4_WINDOW_2,CONFERENCE_4_REFERENCEPOINT1,5.5418E-003
 Sky Daylight Factors,Intermediate Sky,01/01,CONFERENCE_4_DAYLIGHT,CONFERENCE_4,CONFERENCE_4_WINDOW_2,CONFERENCE_4_REFERENCEPOINT1,5.5816E-003
 Sky Daylight Factors,Overcast Sky,01/01,CONFERENCE_4_DAYLIGHT,CONFERENCE_4,CONFERENCE_4_WINDOW_2,CONFERENCE_4_REFERENCEPOINT1,4.8215E-003
 Sky Daylight Factors,Clear Sky,01/01,CONFERENCE_4_DAYLIGHT,CONFERENCE_4,CONFERENCE_4_WINDOW_3,CONFERENCE_4_REFERENCEPOINT1,4.7271E-003
 Sky Daylight Factors,Clear Turbid Sky,01/01,CONFERENCE_4_DAYLIGHT,CONFERENCE_4,CONFERENCE_4_WINDOW_3,CONFERENCE_4_REFERENCEPOINT1,3.8170E-003
 Sky Daylight Factors,Intermediate Sky,01/01,CONFERENCE_4_DAYLIGHT,CONFERENCE_4,CONFERENCE_4_WINDOW_3,CONFERENCE_4_REFERENCEPOINT1,3.4069E-003
 Sky Daylight Factors,Overcast Sky,01/01,CONFERENCE_4_DAYLIGHT,CONFERENCE_4,CONFERENCE_4_WINDOW_3,CONFERENCE_4_REFERENCEPOINT1,4.7741E-003
 Sky Daylight Factors,Clear Sky,01/01,CONFERENCE_4_DAYLIGHT,CONFERENCE_4,CONFERENCE_4_WINDOW_4,CONFERENCE_4_REFERENCEPOINT1,1.5379E-003
 Sky Daylight Factors,Clear Turbid Sky,01/01,CONFERENCE_4_DAYLIGHT,CONFERENCE_4,CONFERENCE_4_WINDOW_4,CONFERENCE_4_REFERENCEPOINT1,1.5038E-003
 Sky Daylight Factors,Intermediate Sky,01/01,CONFERENCE_4_DAYLIGHT,CONFERENCE_4,CONFERENCE_4_WINDOW_4,CONFERENCE_4_REFERENCEPOINT1,1.7757E-003
 Sky Daylight Factors,Overcast Sky,01/01,CONFERENCE_4_DAYLIGHT,CONFERENCE_4,CONFERENCE_4_WINDOW_4,CONFERENCE_4_REFERENCEPOINT1,1.8573E-003
 Sky Daylight Factors,Clear Sky,01/01,OFFICE_PRIVATE_4_DAYLIGHT,OFFICE_PRIVATE_4,OFFICE_PRIVATE_4_WINDOW_1,OFFICE_PRIVATE_4_REFERENCEPOINT1,7.0099E-003
 Sky Daylight Factors,Clear Turbid Sky,01/01,OFFICE_PRIVATE_4_DAYLIGHT,OFFICE_PRIVATE_4,OFFICE_PRIVATE_4_WINDOW_1,OFFICE_PRIVATE_4_REFERENCEPOINT1,7.8186E-003
 Sky Daylight Factors,Intermediate Sky,01/01,OFFICE_PRIVATE_4_DAYLIGHT,OFFICE_PRIVATE_4,OFFICE_PRIVATE_4_WINDOW_1,OFFICE_PRIVATE_4_REFERENCEPOINT1,4.9471E-003
 Sky Daylight Factors,Overcast Sky,01/01,OFFICE_PRIVATE_4_DAYLIGHT,OFFICE_PRIVATE_4,OFFICE_PRIVATE_4_WINDOW_1,OFFICE_PRIVATE_4_REFERENCEPOINT1,2.5236E-003
 Sky Daylight Factors,Clear Sky,01/01,OFFICE_PRIVATE_4_DAYLIGHT,OFFICE_PRIVATE_4,OFFICE_PRIVATE_4_WINDOW_2,OFFICE_PRIVATE_4_REFERENCEPOINT1,6.9327E-003
 Sky Daylight Factors,Clear Turbid Sky,01/01,OFFICE_PRIVATE_4_DAYLIGHT,OFFICE_PRIVATE_4,OFFICE_PRIVATE_4_WINDOW_2,OFFICE_PRIVATE_4_REFERENCEPOINT1,6.4951E-003
 Sky Daylight Factors,Intermediate Sky,01/01,OFFICE_PRIVATE_4_DAYLIGHT,OFFICE_PRIVATE_4,OFFICE_PRIVATE_4_WINDOW_2,OFFICE_PRIVATE_4_REFERENCEPOINT1,6.5418E-003
 Sky Daylight Factors,Overcast Sky,01/01,OFFICE_PRIVATE_4_DAYLIGHT,OFFICE_PRIVATE_4,OFFICE_PRIVATE_4_WINDOW_2,OFFICE_PRIVATE_4_REFERENCEPOINT1,5.6516E-003
 Sky Daylight Factors,Clear Sky,01/01,OFFICE_PRIVATE_4_DAYLIGHT,OFFICE_PRIVATE_4,OFFICE_PRIVATE_4_WINDOW_3,OFFICE_PRIVATE_4_REFERENCEPOINT1,5.0769E-003
 Sky Daylight Factors,Clear Turbid Sky,01/01,OFFICE_PRIVATE_4_DAYLIGHT,OFFICE_PRIVATE_4,OFFICE_PRIVATE_4_WINDOW_3,OFFICE_PRIVATE_4_REFERENCEPOINT1,4.1314E-003
 Sky Daylight Factors,Intermediate Sky,01/01,OFFICE_PRIVATE_4_DAYLIGHT,OFFICE_PRIVATE_4,OFFICE_PRIVATE_4_WINDOW_3,OFFICE_PRIVATE_4_REFERENCEPOINT1,3.7055E-003
 Sky Daylight Factors,Overcast Sky,01/01,OFFICE_PRIVATE_4_DAYLIGHT,OFFICE_PRIVATE_4,OFFICE_PRIVATE_4_WINDOW_3,OFFICE_PRIVATE_4_REFERENCEPOINT1,5.1241E-003
 Sky Daylight Factors,Clear Sky,01/01,OFFICE_PRIVATE_4_DAYLIGHT,OFFICE_PRIVATE_4,OFFICE_PRIVATE_4_WINDOW_4,OFFICE_PRIVATE_4_REFERENCEPOINT1,6.8198E-003
 Sky Daylight Factors,Clear Turbid Sky,01/01,OFFICE_PRIVATE_4_DAYLIGHT,OFFICE_PRIVATE_4,OFFICE_PRIVATE_4_WINDOW_4,OFFICE_PRIVATE_4_REFERENCEPOINT1,6.3922E-003
 Sky Daylight Factors,Intermediate Sky,01/01,OFFICE_PRIVATE_4_DAYLIGHT,OFFICE_PRIVATE_4,OFFICE_PRIVATE_4_WINDOW_4,OFFICE_PRIVATE_4_REFERENCEPOINT1,6.4195E-003
 Sky Daylight Factors,Overcast Sky,01/01,OFFICE_PRIVATE_4_DAYLIGHT,OFFICE_PRIVATE_4,OFFICE_PRIVATE_4_WINDOW_4,OFFICE_PRIVATE_4_REFERENCEPOINT1,5.5005E-003
Environment:WarmupDays,  7
! <Warmup Convergence Information>,Zone Name,Environment Type/Name,Average Warmup Temperature Difference {deltaC},Std Dev Warmup Temperature Difference {deltaC},Max Temperature Pass/Fail Convergence,Min Temperature Pass/Fail Convergence,Average Warmup Load Difference {W},Std Dev Warmup Load Difference {W},Heating Load Pass/Fail Convergence,Cooling Load Pass/Fail Convergence
 Warmup Convergence Information,LOBBY_0,RunPeriod: YEAR ROUND RUN PERIOD,7.2207983502E-002,8.5410388208E-002,Pass,Pass,1.0552624570E-002,1.2850358320E-002,Pass,Pass
 Warmup Convergence Information,CONFERENCE_0,RunPeriod: YEAR ROUND RUN PERIOD,0.1131673641,0.1276436306,Pass,Pass,1.5433279869E-002,1.8016939344E-002,Pass,Pass
 Warmup Convergence Information,STORAGE_0,RunPeriod: YEAR ROUND RUN PERIOD,0.1843840110,0.2011614615,Pass,Pass,1.6673647543E-002,1.8715364757E-002,Pass,Pass
 Warmup Convergence Information,MECHANICAL_1,RunPeriod: YEAR ROUND RUN PERIOD,0.1177647112,0.1344985277,Pass,Pass,1.1412535805E-002,1.3302899255E-002,Pass,Pass
 Warmup Convergence Information,OFFICE_OPEN_1,RunPeriod: YEAR ROUND RUN PERIOD,3.2951082776E-002,3.2676735895E-002,Pass,Pass,8.8661385432E-003,8.8065976417E-003,Pass,Pass
 Warmup Convergence Information,OFFICE_PRIVATE_1,RunPeriod: YEAR ROUND RUN PERIOD,0.1106560787,0.1276621485,Pass,Pass,1.3195789496E-002,1.5761512670E-002,Pass,Pass
 Warmup Convergence Information,STORAGE_1,RunPeriod: YEAR ROUND RUN PERIOD,0.1295951924,0.1472949172,Pass,Pass,1.2175401039E-002,1.4294387939E-002,Pass,Pass
 Warmup Convergence Information,LOBBY_2,RunPeriod: YEAR ROUND RUN PERIOD,8.6810637576E-002,9.7779045433E-002,Pass,Pass,1.1519398421E-002,1.3301604525E-002,Pass,Pass
 Warmup Convergence Information,CONFERENCE_2,RunPeriod: YEAR ROUND RUN PERIOD,8.1357236054E-002,9.1013590438E-002,Pass,Pass,1.3259506608E-002,1.5158677781E-002,Pass,Pass
 Warmup Convergence Information,BREAK_ROOM_2,RunPeriod: YEAR ROUND RUN PERIOD,8.2833756062E-002,9.7552101721E-002,Pass,Pass,1.4271290501E-002,1.7303413712E-002,Pass,Pass
 Warmup Convergence Information,OFFICE_OPEN_2,RunPeriod: YEAR ROUND RUN PERIOD,2.7765663482E-002,2.6247295365E-002,Pass,Pass,8.6603279643E-003,8.1549876283E-003,Pass,Pass
 Warmup Convergence Information,LOBBY_3,RunPeriod: YEAR ROUND RUN PERIOD,7.4910043673E-002,8.7010678293E-002,Pass,Pass,9.3928803507E-003,1.1400011577E-002,Pass,Pass
 Warmup Convergence Information,CONFERENCE_3,RunPeriod: YEAR ROUND RUN PERIOD,6.9832543883E-002,8.2702779518E-002,Pass,Pass,1.1725794711E-002,1.4247399526E-002,Pass,Pass
 Warmup Convergence Information,MECHANICAL_3,RunPeriod: YEAR ROUND RUN PERIOD,9.3978535784E-002,0.1094649289,Pass,Pass,9.5950819297E-003,1.1362545461E-002,Pass,Pass
 Warmup Convergence Information,STORAGE_3,RunPeriod: YEAR ROUND RUN PERIOD,0.1438049970,0.1537793006,Pass,Pass,1.3710935838E-002,1.4990287147E-002,Pass,Pass
 Warmup Convergence Information,LOBBY_4,RunPeriod: YEAR ROUND RUN PERIOD,4.4666953879E-002,5.0802311234E-002,Pass,Pass,7.8779161349E-003,9.1179252011E-003,Pass,Pass
 Warmup Convergence Information,CONFERENCE_4,RunPeriod: YEAR ROUND RUN PERIOD,7.8874724191E-002,9.0869885278E-002,Pass,Pass,1.2493572803E-002,1.4736779649E-002,Pass,Pass
 Warmup Convergence Information,MECHANICAL_4,RunPeriod: YEAR ROUND RUN PERIOD,0.1320740961,0.1453087965,Pass,Pass,1.2396904506E-002,1.3908126617E-002,Pass,Pass
 Warmup Convergence Information,OFFICE_PRIVATE_4,RunPeriod: YEAR ROUND RUN PERIOD,9.8604262011E-002,0.1129018394,Pass,Pass,1.2609340509E-002,1.4773761597E-002,Pass,Pass
! <Program Control Information:Threads/Parallel Sims>, Threading Supported,Maximum Number of Threads, Env Set Threads (OMP_NUM_THREADS), EP Env Set Threads (EP_OMP_NUM_THREADS), IDF Set Threads, Number of Threads Used (Interior Radiant Exchange), Number Nominal Surfaces, Number Parallel Sims
Program Control:Threads/Parallel Sims, No,1, N/A, N/A, N/A, N/A, N/A, N/A
End of Data
