Program Version,EnergyPlus, Version 24.2.0-94a887817b, YMD=2025.11.01 13:40,
   ** Severe  ** <root>[Controller:OutdoorAir][break_room_0_z2_OAController][economizer_control_action_type] - "MinimumLimit" - Failed to match against any enum values.
   ** Severe  ** <root>[Controller:OutdoorAir][break_room_0_z2_OAController][economizer_maximum_limit_dewpoint_temperature] - Value type "string" for input "DifferentialDryBulb" not permitted by 'type' constraint.
   **  Fatal  ** Errors occurred on processing input file. Preceding condition(s) cause termination.
   ...Summary of Errors that led to program termination:
   ..... Reference severe error count=2
   ..... Last severe error=<root>[Controller:OutdoorAir][break_room_0_z2_OAController][economizer_maximum_limit_dewpoint_temperature] - Value type "string" for input "DifferentialDryBulb" not permitted by 'type' constraint.
   ************* Warning:  Node connection errors not checked - most system input has not been read (see previous warning).
   ************* Fatal error -- final processing.  Program exited before simulations began.  See previous error messages.
   ************* EnergyPlus Warmup Error Summary. During Warmup: 0 Warning; 0 Severe Errors.
   ************* EnergyPlus Sizing Error Summary. During Sizing: 0 Warning; 0 Severe Errors.
   ************* EnergyPlus Terminated--Fatal Error Detected. 0 Warning; 2 Severe Errors; Elapsed Time=00hr 00min  0.19sec
