Program Version,EnergyPlus, Version 24.2.0-94a887817b, YMD=2025.11.02 19:29
! <Version>, Version ID
 Version, 24.2.0
! <Timesteps per Hour>, #TimeSteps, Minutes per TimeStep {minutes}
 Timesteps per Hour,  4, 15
! <System Convergence Limits>, Minimum System TimeStep {minutes}, Max HVAC Iterations, Minimum Plant Iterations, Maximum Plant Iterations
 System Convergence Limits, 1, 20, 2, 8
! <Simulation Control>, Do Zone Sizing, Do System Sizing, Do Plant Sizing, Do Design Days, Do Weather Simulation, Do HVAC Sizing Simulation
 Simulation Control, No, No, No, No, Yes, No
! <Performance Precision Tradeoffs>, Use Coil Direct Simulation, Zone Radiant Exchange Algorithm, Override Mode, Number of Timestep In Hour, Force Euler Method, Minimum Number of Warmup Days, Force Suppress All Begin Environment Resets, Minimum System Timestep, MaxZoneTempDiff, MaxAllowedDelTemp
 Performance Precision Tradeoffs, No, ScriptF, Normal, 4, No, 1, No, 1.0, 0.300, 2.0000E-003
! <Output Reporting Tolerances>, Tolerance for Time Heating Setpoint Not Met, Tolerance for Zone Cooling Setpoint Not Met Time
 Output Reporting Tolerances, 0.200, 0.200, 
! <Site:GroundTemperature:BuildingSurface>,Jan{C},Feb{C},Mar{C},Apr{C},May{C},Jun{C},Jul{C},Aug{C},Sep{C},Oct{C},Nov{C},Dec{C}
 Site:GroundTemperature:BuildingSurface,  13.00,  12.00,  11.00,  10.00,  11.00,  13.00,  15.00,  16.00,  16.00,  15.00,  14.00,  13.00
! <Site:GroundTemperature:FCfactorMethod>,Jan{C},Feb{C},Mar{C},Apr{C},May{C},Jun{C},Jul{C},Aug{C},Sep{C},Oct{C},Nov{C},Dec{C}
 Site:GroundTemperature:FCfactorMethod,  -1.89,  -3.06,  -0.99,   2.23,  10.68,  17.20,  21.60,  22.94,  20.66,  15.60,   8.83,   2.56
! <Site:GroundTemperature:Shallow>,Jan{C},Feb{C},Mar{C},Apr{C},May{C},Jun{C},Jul{C},Aug{C},Sep{C},Oct{C},Nov{C},Dec{C}
 Site:GroundTemperature:Shallow,  11.00,  10.00,   9.00,   8.00,   9.00,  11.00,  13.00,  14.00,  14.00,  13.00,  12.00,  11.00
! <Site:GroundTemperature:Deep>,Jan{C},Feb{C},Mar{C},Apr{C},May{C},Jun{C},Jul{C},Aug{C},Sep{C},Oct{C},Nov{C},Dec{C}
 Site:GroundTemperature:Deep,   9.00,   8.00,   7.00,   6.00,   7.00,   9.00,  11.00,  12.00,  12.00,  11.00,  10.00,   9.00
! <Site:GroundReflectance>,Jan{dimensionless},Feb{dimensionless},Mar{dimensionless},Apr{dimensionless},May{dimensionless},Jun{dimensionless},Jul{dimensionless},Aug{dimensionless},Sep{dimensionless},Oct{dimensionless},Nov{dimensionless},Dec{dimensionless}
 Site:GroundReflectance,  0.20,  0.20,  0.20,  0.20,  0.20,  0.20,  0.20,  0.20,  0.20,  0.20,  0.20,  0.20
! <Site:GroundReflectance:SnowModifier>, Normal, Daylighting {dimensionless}
 Site:GroundReflectance:SnowModifier,   1.000,   1.000
! <Site:GroundReflectance:Snow>,Jan{dimensionless},Feb{dimensionless},Mar{dimensionless},Apr{dimensionless},May{dimensionless},Jun{dimensionless},Jul{dimensionless},Aug{dimensionless},Sep{dimensionless},Oct{dimensionless},Nov{dimensionless},Dec{dimensionless}
 Site:GroundReflectance:Snow,  0.20,  0.20,  0.20,  0.20,  0.20,  0.20,  0.20,  0.20,  0.20,  0.20,  0.20,  0.20
! <Site:GroundReflectance:Snow:Daylighting>,Jan{dimensionless},Feb{dimensionless},Mar{dimensionless},Apr{dimensionless},May{dimensionless},Jun{dimensionless},Jul{dimensionless},Aug{dimensionless},Sep{dimensionless},Oct{dimensionless},Nov{dimensionless},Dec{dimensionless}
 Site:GroundReflectance:Snow:Daylighting,  0.20,  0.20,  0.20,  0.20,  0.20,  0.20,  0.20,  0.20,  0.20,  0.20,  0.20,  0.20
! <Environment:Weather Station>,Wind Sensor Height Above Ground {m},Wind Speed Profile Exponent {},Wind Speed Profile Boundary Layer Thickness {m},Air Temperature Sensor Height Above Ground {m},Wind Speed Modifier Coefficient-Internal,Temperature Modifier Coefficient-Internal
Environment:Weather Station,10.000,0.140,270.000,1.500,1.586,9.750E-003
! <Site:Location>, Location Name, Latitude {N+/S- Deg}, Longitude {E+/W- Deg},  Time Zone Number {GMT+/-}, Elevation {m},  Standard Pressure at Elevation {Pa}, Standard RhoAir at Elevation
Site:Location,Chicago Ohare Intl Ap IL USA TMY3 WMO#=725300,41.98,-87.92,-6.00,201.00,98934,1.1759
! <Site Water Mains Temperature Information>,Calculation Method{},Water Mains Temperature Schedule Name{},Annual Average Outdoor Air Temperature{C},Maximum Difference In Monthly Average Outdoor Air Temperatures{deltaC},Fixed Default Water Mains Temperature{C}
Site Water Mains Temperature Information,FixedDefault,NA,NA,NA,10.0
! <Building Information>, Building Name,North Axis {deg},Terrain,  Loads Convergence Tolerance Value,Temperature Convergence Tolerance Value,  Solar Distribution,Maximum Number of Warmup Days,Minimum Number of Warmup Days
 Building Information,Professional Building,0.000,Suburbs,4.00000E-002,0.20000,FullInteriorAndExterior,15,6
! <Inside Convection Algorithm>, Algorithm {Simple | TARP | CeilingDiffuser | AdaptiveConvectionAlgorithm}
Inside Convection Algorithm,TARP
! <Outside Convection Algorithm>, Algorithm {SimpleCombined | TARP | MoWitt | DOE-2 | AdaptiveConvectionAlgorithm}
Outside Convection Algorithm,DOE-2
! <Sky Radiance Distribution>, Value {Anisotropic}
Sky Radiance Distribution,Anisotropic
! <Zone Air Solution Algorithm>, Algorithm {ThirdOrderBackwardDifference | AnalyticalSolution | EulerMethod}, Space Heat Balance Sizing, Space Heat Balance Simulation
 Zone Air Solution Algorithm, ThirdOrderBackwardDifference, No, No
! <Zone Air Carbon Dioxide Balance Simulation>, Simulation {Yes/No}, Carbon Dioxide Concentration
 Zone Air Carbon Dioxide Balance Simulation, No,N/A
! <Zone Air Generic Contaminant Balance Simulation>, Simulation {Yes/No}, Generic Contaminant Concentration
 Zone Air Generic Contaminant Balance Simulation, No,N/A
! <Zone Air Mass Flow Balance Simulation>, Enforce Mass Balance, Adjust Zone Mixing and Return {AdjustMixingOnly | AdjustReturnOnly | AdjustMixingThenReturn | AdjustReturnThenMixing | None}, Adjust Zone Infiltration {AddInfiltration | AdjustInfiltration | None}, Infiltration Zones {MixingSourceZonesOnly | AllZones}
 Zone Air Mass Flow Balance Simulation, No,N/A,N/A,N/A
! <HVACSystemRootFindingAlgorithm>, Value {RegulaFalsi | Bisection | BisectionThenRegulaFalsi | RegulaFalsiThenBisection}
 HVACSystemRootFindingAlgorithm, RegulaFalsi
! <Environment:Site Atmospheric Variation>,Wind Speed Profile Exponent {},Wind Speed Profile Boundary Layer Thickness {m},Air Temperature Gradient Coefficient {K/m}
Environment:Site Atmospheric Variation,0.220,370.000,6.500000E-003
! <Shadowing/Sun Position Calculations Annual Simulations>, Shading Calculation Method, Shading Calculation Update Frequency Method, Shading Calculation Update Frequency {days}, Maximum Figures in Shadow Overlap Calculations {}, Polygon Clipping Algorithm, Pixel Counting Resolution, Sky Diffuse Modeling Algorithm, Output External Shading Calculation Results, Disable Self-Shading Within Shading Zone Groups, Disable Self-Shading From Shading Zone Groups to Other Zones
Shadowing/Sun Position Calculations Annual Simulations,PolygonClipping,Periodic,20,15000,SutherlandHodgman,512,SimpleSkyDiffuseModeling,No,No,No
! <Surface Geometry>,Starting Corner,Vertex Input Direction,Coordinate System,Daylight Reference Point Coordinate System,Rectangular (Simple) Surface Coordinate System
 Surface Geometry,UpperLeftCorner,Counterclockwise,RelativeCoordinateSystem,RelativeCoordinateSystem,RelativeToZoneOrigin
! <Surface Heat Transfer Algorithm>, Value {CTF - ConductionTransferFunction | EMPD - MoisturePenetrationDepthConductionTransferFunction | CondFD - ConductionFiniteDifference | HAMT - CombinedHeatAndMoistureFiniteElement} - Description,Inside Surface Max Temperature Limit{C}, Surface Convection Coefficient Lower Limit {W/m2-K}, Surface Convection Coefficient Upper Limit {W/m2-K}
Surface Heat Transfer Algorithm, CTF - ConductionTransferFunction,200,0.10,1000.0
! <Shading Summary>, Number of Fixed Detached Shades, Number of Building Detached Shades, Number of Attached Shades
 Shading Summary,0,0,0
! <Zone Summary>, Number of Zones, Number of Zone Surfaces, Number of SubSurfaces
 Zone Summary,30,330,120
! <Zone Information>,Zone Name,North Axis {deg},Origin X-Coordinate {m},Origin Y-Coordinate {m},Origin Z-Coordinate {m},Centroid X-Coordinate {m},Centroid Y-Coordinate {m},Centroid Z-Coordinate {m},Type,Zone Multiplier,Zone List Multiplier,Minimum X {m},Maximum X {m},Minimum Y {m},Maximum Y {m},Minimum Z {m},Maximum Z {m},Ceiling Height {m},Volume {m3},Zone Inside Convection Algorithm {Simple-Detailed-CeilingDiffuser-TrombeWall},Zone Outside Convection Algorithm {Simple-Detailed-Tarp-MoWitt-DOE-2-BLAST}, Floor Area {m2},Exterior Gross Wall Area {m2},Exterior Net Wall Area {m2},Exterior Window Area {m2}, Number of Surfaces, Number of SubSurfaces, Number of Shading SubSurfaces,  Part of Total Building Area
 Zone Information, CONFERENCE_0,0.0,0.00,0.00,0.00,7.03,18.36,1.50,1,1,1,2.73,11.34,13.42,23.31,0.00,3.00,3.00,249.73,TARP,DOE-2,83.24,109.76,76.73,33.03,6,4,0,Yes
 Zone Information, BREAK_ROOM_0,0.0,0.00,0.00,0.00,2.38,20.59,1.50,1,1,1,-0.74,5.50,14.82,26.35,0.00,3.00,3.00,210.62,TARP,DOE-2,70.21,105.42,73.69,31.73,6,4,0,Yes
 Zone Information, MECHANICAL_0,0.0,0.00,0.00,0.00,19.23,40.05,1.50,1,1,1,15.72,22.74,33.21,46.89,0.00,3.00,3.00,281.67,TARP,DOE-2,93.89,122.96,85.95,37.01,6,4,0,Yes
 Zone Information, OFFICE_OPEN_0,0.0,0.00,0.00,0.00,16.92,6.06,1.50,1,1,1,10.00,23.85,-4.67,16.79,0.00,3.00,3.00,881.22,TARP,DOE-2,293.74,210.68,147.28,63.41,6,4,0,Yes
 Zone Information, OFFICE_PRIVATE_0,0.0,0.00,0.00,0.00,20.77,25.70,1.50,1,1,1,18.94,22.60,22.63,28.76,0.00,3.00,3.00,64.37,TARP,DOE-2,21.46,57.53,40.21,17.31,6,4,0,Yes
 Zone Information, STORAGE_0,0.0,0.00,0.00,0.00,6.73,2.30,1.50,1,1,1,5.09,8.38,4.74E-002,4.54,0.00,3.00,3.00,42.09,TARP,DOE-2,14.03,45.52,31.82,13.70,6,4,0,Yes
 Zone Information, LOBBY_1,0.0,0.00,0.00,0.00,10.88,23.49,4.50,1,1,1,6.39,15.37,15.99,30.99,3.00,6.00,3.00,397.49,TARP,DOE-2,132.50,142.77,99.81,42.97,6,4,0,Yes
 Zone Information, BREAK_ROOM_1,0.0,0.00,0.00,0.00,43.97,38.81,4.50,1,1,1,40.95,46.99,33.35,44.26,3.00,6.00,3.00,192.74,TARP,DOE-2,64.25,100.54,70.28,30.26,6,4,0,Yes
 Zone Information, OFFICE_OPEN_1,0.0,0.00,0.00,0.00,19.81,22.18,4.50,1,1,1,13.16,26.46,14.78,29.57,3.00,6.00,3.00,581.84,TARP,DOE-2,193.95,167.36,116.99,50.37,6,4,0,Yes
 Zone Information, OFFICE_PRIVATE_1,0.0,0.00,0.00,0.00,14.08,31.76,4.50,1,1,1,10.88,17.29,28.43,35.08,3.00,6.00,3.00,124.06,TARP,DOE-2,41.35,77.18,53.95,23.23,6,4,0,Yes
 Zone Information, STORAGE_1,0.0,0.00,0.00,0.00,42.43,41.53,4.50,1,1,1,41.23,43.63,39.25,43.81,3.00,6.00,3.00,30.72,TARP,DOE-2,10.24,40.52,28.32,12.19,6,4,0,Yes
 Zone Information, LOBBY_2,0.0,0.00,0.00,0.00,7.41,38.76,7.50,1,1,1,3.47,11.34,31.71,45.82,6.00,9.00,3.00,326.67,TARP,DOE-2,108.89,130.71,91.37,39.34,6,4,0,Yes
 Zone Information, CONFERENCE_2,0.0,0.00,0.00,0.00,20.71,1.19,7.50,1,1,1,16.37,25.05,-3.74,6.13,6.00,9.00,3.00,251.57,TARP,DOE-2,83.86,110.12,76.98,33.14,6,4,0,Yes
 Zone Information, BREAK_ROOM_2,0.0,0.00,0.00,0.00,3.65,25.68,7.50,1,1,1,0.64,6.65,20.47,30.89,6.00,9.00,3.00,182.87,TARP,DOE-2,60.96,97.36,68.06,29.30,6,4,0,Yes
 Zone Information, MECHANICAL_2,0.0,0.00,0.00,0.00,36.62,22.39,7.50,1,1,1,33.08,40.16,15.38,29.41,6.00,9.00,3.00,291.61,TARP,DOE-2,97.20,125.46,87.70,37.76,6,4,0,Yes
 Zone Information, OFFICE_OPEN_2,0.0,0.00,0.00,0.00,38.58,23.59,7.50,1,1,1,30.32,46.85,11.31,35.86,6.00,9.00,3.00,1204.84,TARP,DOE-2,401.61,245.26,171.45,73.81,6,4,0,Yes
 Zone Information, OFFICE_PRIVATE_2,0.0,0.00,0.00,0.00,13.31,39.47,7.50,1,1,1,11.04,15.58,36.72,42.22,6.00,9.00,3.00,72.04,TARP,DOE-2,24.01,59.08,41.30,17.78,6,4,0,Yes
 Zone Information, STORAGE_2,0.0,0.00,0.00,0.00,22.09,34.66,7.50,1,1,1,20.13,24.04,31.28,38.03,6.00,9.00,3.00,76.06,TARP,DOE-2,25.35,62.77,43.88,18.89,6,4,0,Yes
 Zone Information, LOBBY_3,0.0,0.00,0.00,0.00,-0.43,28.98,10.50,1,1,1,-5.36,4.49,21.28,36.68,9.00,12.00,3.00,447.92,TARP,DOE-2,149.31,150.36,105.11,45.25,6,4,0,Yes
 Zone Information, CONFERENCE_3,0.0,0.00,0.00,0.00,38.11,7.77,10.50,1,1,1,33.31,42.91,2.83,12.70,9.00,12.00,3.00,278.29,TARP,DOE-2,92.76,115.59,80.80,34.79,6,4,0,Yes
 Zone Information, BREAK_ROOM_3,0.0,0.00,0.00,0.00,37.63,8.99,10.50,1,1,1,34.58,40.69,3.99,13.99,9.00,12.00,3.00,178.46,TARP,DOE-2,59.49,95.46,66.73,28.73,6,4,0,Yes
 Zone Information, MECHANICAL_3,0.0,0.00,0.00,0.00,9.41,33.94,10.50,1,1,1,5.60,13.23,27.95,39.94,9.00,12.00,3.00,268.62,TARP,DOE-2,89.54,116.52,81.45,35.07,6,4,0,Yes
 Zone Information, OFFICE_OPEN_3,0.0,0.00,0.00,0.00,29.77,30.76,10.50,1,1,1,24.49,35.04,24.70,36.82,9.00,12.00,3.00,376.63,TARP,DOE-2,125.54,134.78,94.22,40.57,6,4,0,Yes
 Zone Information, OFFICE_PRIVATE_3,0.0,0.00,0.00,0.00,8.64,21.84,10.50,1,1,1,5.78,11.51,17.80,25.88,9.00,12.00,3.00,134.84,TARP,DOE-2,44.95,81.69,57.10,24.58,6,4,0,Yes
 Zone Information, LOBBY_4,0.0,0.00,0.00,0.00,41.07,23.82,13.50,1,1,1,35.79,46.34,17.40,30.24,12.00,15.00,3.00,399.27,TARP,DOE-2,133.09,139.12,97.25,41.87,6,4,0,Yes
 Zone Information, CONFERENCE_4,0.0,0.00,0.00,0.00,2.05,12.04,13.50,1,1,1,-1.37,5.47,7.55,16.53,12.00,15.00,3.00,179.64,TARP,DOE-2,59.88,93.73,65.52,28.21,6,4,0,Yes
 Zone Information, MECHANICAL_4,0.0,0.00,0.00,0.00,42.99,15.79,13.50,1,1,1,39.23,46.75,10.99,20.60,12.00,15.00,3.00,211.55,TARP,DOE-2,70.52,101.55,70.99,30.56,6,4,0,Yes
 Zone Information, OFFICE_OPEN_4,0.0,0.00,0.00,0.00,22.19,42.23,13.50,1,1,1,15.39,28.98,33.42,51.04,12.00,15.00,3.00,709.54,TARP,DOE-2,236.51,186.12,130.10,56.02,6,4,0,Yes
 Zone Information, OFFICE_PRIVATE_4,0.0,0.00,0.00,0.00,1.91,44.59,13.50,1,1,1,-0.70,4.52,40.26,48.92,12.00,15.00,3.00,131.39,TARP,DOE-2,43.80,82.06,57.36,24.70,6,4,0,Yes
 Zone Information, STORAGE_4,0.0,0.00,0.00,0.00,17.18,36.66,13.50,1,1,1,14.43,19.93,33.02,40.29,12.00,15.00,3.00,116.16,TARP,DOE-2,38.72,75.42,52.72,22.70,6,4,0,Yes
! <Zone Internal Gains Nominal>,Zone Name, Floor Area {m2},# Occupants,Area per Occupant {m2/person},Occupant per Area {person/m2},Interior Lighting {W/m2},Electric Load {W/m2},Gas Load {W/m2},Other Load {W/m2},Hot Water Eq {W/m2},Steam Equipment {W/m2},Sum Loads per Area {W/m2},Outdoor Controlled Baseboard Heat
 Zone Internal Gains Nominal, CONFERENCE_0,83.24,16.0,5.203,0.192,10.800,8.100,0.000,0.000,0.000,0.000,18.900,No
 Zone Internal Gains Nominal, BREAK_ROOM_0,70.21,7.0,10.029,9.971E-002,8.100,15.000,0.000,0.000,0.000,0.000,23.100,No
 Zone Internal Gains Nominal, MECHANICAL_0,93.89,1.0,93.889,1.065E-002,5.400,0.000,0.000,0.000,0.000,0.000,5.400,No
 Zone Internal Gains Nominal, OFFICE_OPEN_0,293.74,14.0,20.981,4.766E-002,10.800,8.100,0.000,0.000,0.000,0.000,18.900,No
 Zone Internal Gains Nominal, OFFICE_PRIVATE_0,21.46,1.0,21.458,4.660E-002,10.800,8.100,0.000,0.000,0.000,0.000,18.900,No
 Zone Internal Gains Nominal, STORAGE_0,14.03,1.0,14.029,7.128E-002,5.400,1.100,0.000,0.000,0.000,0.000,6.500,No
 Zone Internal Gains Nominal, LOBBY_1,132.50,6.0,22.083,4.528E-002,12.900,3.200,0.000,0.000,0.000,0.000,16.100,No
 Zone Internal Gains Nominal, BREAK_ROOM_1,64.25,6.0,10.708,9.339E-002,8.100,15.000,0.000,0.000,0.000,0.000,23.100,No
 Zone Internal Gains Nominal, OFFICE_OPEN_1,193.95,9.0,21.550,4.640E-002,10.800,8.100,0.000,0.000,0.000,0.000,18.900,No
 Zone Internal Gains Nominal, OFFICE_PRIVATE_1,41.35,2.0,20.677,4.836E-002,10.800,8.100,0.000,0.000,0.000,0.000,18.900,No
 Zone Internal Gains Nominal, STORAGE_1,10.24,1.0,10.240,9.765E-002,5.400,1.100,0.000,0.000,0.000,0.000,6.500,No
 Zone Internal Gains Nominal, LOBBY_2,108.89,5.0,21.778,4.592E-002,12.900,3.200,0.000,0.000,0.000,0.000,16.100,No
 Zone Internal Gains Nominal, CONFERENCE_2,83.86,16.0,5.241,0.191,10.800,8.100,0.000,0.000,0.000,0.000,18.900,No
 Zone Internal Gains Nominal, BREAK_ROOM_2,60.96,6.0,10.159,9.843E-002,8.100,15.000,0.000,0.000,0.000,0.000,23.100,No
 Zone Internal Gains Nominal, MECHANICAL_2,97.20,1.0,97.204,1.029E-002,5.400,0.000,0.000,0.000,0.000,0.000,5.400,No
 Zone Internal Gains Nominal, OFFICE_OPEN_2,401.61,20.0,20.081,4.980E-002,10.800,8.100,0.000,0.000,0.000,0.000,18.900,No
 Zone Internal Gains Nominal, OFFICE_PRIVATE_2,24.01,1.0,24.012,4.165E-002,10.800,8.100,0.000,0.000,0.000,0.000,18.900,No
 Zone Internal Gains Nominal, STORAGE_2,25.35,1.0,25.355,3.944E-002,5.400,1.100,0.000,0.000,0.000,0.000,6.500,No
 Zone Internal Gains Nominal, LOBBY_3,149.31,7.0,21.330,4.688E-002,12.900,3.200,0.000,0.000,0.000,0.000,16.100,No
 Zone Internal Gains Nominal, CONFERENCE_3,92.76,18.0,5.154,0.194,10.800,8.100,0.000,0.000,0.000,0.000,18.900,No
 Zone Internal Gains Nominal, BREAK_ROOM_3,59.49,5.0,11.898,8.405E-002,8.100,15.000,0.000,0.000,0.000,0.000,23.100,No
 Zone Internal Gains Nominal, MECHANICAL_3,89.54,1.0,89.540,1.117E-002,5.400,0.000,0.000,0.000,0.000,0.000,5.400,No
 Zone Internal Gains Nominal, OFFICE_OPEN_3,125.54,6.0,20.924,4.779E-002,10.800,8.100,0.000,0.000,0.000,0.000,18.900,No
 Zone Internal Gains Nominal, OFFICE_PRIVATE_3,44.95,2.0,22.473,4.450E-002,10.800,8.100,0.000,0.000,0.000,0.000,18.900,No
 Zone Internal Gains Nominal, LOBBY_4,133.09,6.0,22.182,4.508E-002,12.900,3.200,0.000,0.000,0.000,0.000,16.100,No
 Zone Internal Gains Nominal, CONFERENCE_4,59.88,11.0,5.443,0.184,10.800,8.100,0.000,0.000,0.000,0.000,18.900,No
 Zone Internal Gains Nominal, MECHANICAL_4,70.52,1.0,70.516,1.418E-002,5.400,0.000,0.000,0.000,0.000,0.000,5.400,No
 Zone Internal Gains Nominal, OFFICE_OPEN_4,236.51,11.0,21.501,4.651E-002,10.800,8.100,0.000,0.000,0.000,0.000,18.900,No
 Zone Internal Gains Nominal, OFFICE_PRIVATE_4,43.80,2.0,21.899,4.566E-002,10.800,8.100,0.000,0.000,0.000,0.000,18.900,No
 Zone Internal Gains Nominal, STORAGE_4,38.72,1.0,38.721,2.583E-002,5.400,1.100,0.000,0.000,0.000,0.000,6.500,No
! <People Internal Gains Nominal>,Name,Schedule Name,Zone Name,Zone Floor Area {m2},# Zone Occupants,Number of People {},People/Floor Area {person/m2},Floor Area per person {m2/person},Fraction Radiant,Fraction Convected,Sensible Fraction Calculation,Activity level,ASHRAE 55 Warnings,Carbon Dioxide Generation Rate,Minimum Number of People for All Day Types,Maximum Number of People for All Day Types,Minimum Number of People for Weekdays, Maximum Number of People for Weekdays, Minimum Number of People for Weekends/Holidays, Maximum Number of People for Weekends /Holidays,Minimum Number of People for Summer Design Days, Maximum Number of People for Summer Design Days,Minimum Number of People for Winter Design Days, Maximum Number of People for Winter Design Days
 People Internal Gains Nominal, CONFERENCE_0_PEOPLE,CONFERENCE_OCCUPANCY,CONFERENCE_0,83.24,16.0,16.0,0.192,5.203,0.300,0.700,0.100,CONFERENCE_ACTIVITY,No,3.8200E-008,0.0,16.0,0.0,16.0,0.0,1.6,0.0,0.0,0.0,0.0,
 People Internal Gains Nominal, BREAK_ROOM_0_PEOPLE,BREAK_ROOM_OCCUPANCY,BREAK_ROOM_0,70.21,7.0,7.0,9.971E-002,10.029,0.300,0.700,0.100,BREAK_ROOM_ACTIVITY,No,3.8200E-008,1.4,1.4,1.4,1.4,1.4,1.4,1.4,1.4,1.4,1.4,
 People Internal Gains Nominal, MECHANICAL_0_PEOPLE,MECHANICAL_OCCUPANCY,MECHANICAL_0,93.89,1.0,1.0,1.065E-002,93.889,0.300,0.700,0.100,MECHANICAL_ACTIVITY,No,3.8200E-008,0.2,0.2,0.2,0.2,0.2,0.2,0.2,0.2,0.2,0.2,
 People Internal Gains Nominal, OFFICE_OPEN_0_PEOPLE,OFFICE_OPEN_OCCUPANCY,OFFICE_OPEN_0,293.74,14.0,14.0,4.766E-002,20.981,0.300,0.700,0.100,OFFICE_OPEN_ACTIVITY,No,3.8200E-008,0.0,14.0,0.0,14.0,0.0,1.4,0.0,0.0,0.0,0.0,
 People Internal Gains Nominal, OFFICE_PRIVATE_0_PEOPLE,OFFICE_OPEN_OCCUPANCY,OFFICE_PRIVATE_0,21.46,1.0,1.0,4.660E-002,21.458,0.300,0.700,0.100,OFFICE_OPEN_ACTIVITY,No,3.8200E-008,0.0,1.0,0.0,1.0,0.0,0.1,0.0,0.0,0.0,0.0,
 People Internal Gains Nominal, STORAGE_0_PEOPLE,STORAGE_OCCUPANCY,STORAGE_0,14.03,1.0,1.0,7.128E-002,14.029,0.300,0.700,0.100,STORAGE_ACTIVITY,No,3.8200E-008,0.2,0.2,0.2,0.2,0.2,0.2,0.2,0.2,0.2,0.2,
 People Internal Gains Nominal, LOBBY_1_PEOPLE,LOBBY_OCCUPANCY,LOBBY_1,132.50,6.0,6.0,4.528E-002,22.083,0.300,0.700,0.100,LOBBY_ACTIVITY,No,3.8200E-008,1.2,1.2,1.2,1.2,1.2,1.2,1.2,1.2,1.2,1.2,
 People Internal Gains Nominal, BREAK_ROOM_1_PEOPLE,BREAK_ROOM_OCCUPANCY,BREAK_ROOM_1,64.25,6.0,6.0,9.339E-002,10.708,0.300,0.700,0.100,BREAK_ROOM_ACTIVITY,No,3.8200E-008,1.2,1.2,1.2,1.2,1.2,1.2,1.2,1.2,1.2,1.2,
 People Internal Gains Nominal, OFFICE_OPEN_1_PEOPLE,OFFICE_OPEN_OCCUPANCY,OFFICE_OPEN_1,193.95,9.0,9.0,4.640E-002,21.550,0.300,0.700,0.100,OFFICE_OPEN_ACTIVITY,No,3.8200E-008,0.0,9.0,0.0,9.0,0.0,0.9,0.0,0.0,0.0,0.0,
 People Internal Gains Nominal, OFFICE_PRIVATE_1_PEOPLE,OFFICE_OPEN_OCCUPANCY,OFFICE_PRIVATE_1,41.35,2.0,2.0,4.836E-002,20.677,0.300,0.700,0.100,OFFICE_OPEN_ACTIVITY,No,3.8200E-008,0.0,2.0,0.0,2.0,0.0,0.2,0.0,0.0,0.0,0.0,
 People Internal Gains Nominal, STORAGE_1_PEOPLE,STORAGE_OCCUPANCY,STORAGE_1,10.24,1.0,1.0,9.765E-002,10.240,0.300,0.700,0.100,STORAGE_ACTIVITY,No,3.8200E-008,0.2,0.2,0.2,0.2,0.2,0.2,0.2,0.2,0.2,0.2,
 People Internal Gains Nominal, LOBBY_2_PEOPLE,LOBBY_OCCUPANCY,LOBBY_2,108.89,5.0,5.0,4.592E-002,21.778,0.300,0.700,0.100,LOBBY_ACTIVITY,No,3.8200E-008,1.0,1.0,1.0,1.0,1.0,1.0,1.0,1.0,1.0,1.0,
 People Internal Gains Nominal, CONFERENCE_2_PEOPLE,CONFERENCE_OCCUPANCY,CONFERENCE_2,83.86,16.0,16.0,0.191,5.241,0.300,0.700,0.100,CONFERENCE_ACTIVITY,No,3.8200E-008,0.0,16.0,0.0,16.0,0.0,1.6,0.0,0.0,0.0,0.0,
 People Internal Gains Nominal, BREAK_ROOM_2_PEOPLE,BREAK_ROOM_OCCUPANCY,BREAK_ROOM_2,60.96,6.0,6.0,9.843E-002,10.159,0.300,0.700,0.100,BREAK_ROOM_ACTIVITY,No,3.8200E-008,1.2,1.2,1.2,1.2,1.2,1.2,1.2,1.2,1.2,1.2,
 People Internal Gains Nominal, MECHANICAL_2_PEOPLE,MECHANICAL_OCCUPANCY,MECHANICAL_2,97.20,1.0,1.0,1.029E-002,97.204,0.300,0.700,0.100,MECHANICAL_ACTIVITY,No,3.8200E-008,0.2,0.2,0.2,0.2,0.2,0.2,0.2,0.2,0.2,0.2,
 People Internal Gains Nominal, OFFICE_OPEN_2_PEOPLE,OFFICE_OPEN_OCCUPANCY,OFFICE_OPEN_2,401.61,20.0,20.0,4.980E-002,20.081,0.300,0.700,0.100,OFFICE_OPEN_ACTIVITY,No,3.8200E-008,0.0,20.0,0.0,20.0,0.0,2.0,0.0,0.0,0.0,0.0,
 People Internal Gains Nominal, OFFICE_PRIVATE_2_PEOPLE,OFFICE_OPEN_OCCUPANCY,OFFICE_PRIVATE_2,24.01,1.0,1.0,4.165E-002,24.012,0.300,0.700,0.100,OFFICE_OPEN_ACTIVITY,No,3.8200E-008,0.0,1.0,0.0,1.0,0.0,0.1,0.0,0.0,0.0,0.0,
 People Internal Gains Nominal, STORAGE_2_PEOPLE,STORAGE_OCCUPANCY,STORAGE_2,25.35,1.0,1.0,3.944E-002,25.355,0.300,0.700,0.100,STORAGE_ACTIVITY,No,3.8200E-008,0.2,0.2,0.2,0.2,0.2,0.2,0.2,0.2,0.2,0.2,
 People Internal Gains Nominal, LOBBY_3_PEOPLE,LOBBY_OCCUPANCY,LOBBY_3,149.31,7.0,7.0,4.688E-002,21.330,0.300,0.700,0.100,LOBBY_ACTIVITY,No,3.8200E-008,1.4,1.4,1.4,1.4,1.4,1.4,1.4,1.4,1.4,1.4,
 People Internal Gains Nominal, CONFERENCE_3_PEOPLE,CONFERENCE_OCCUPANCY,CONFERENCE_3,92.76,18.0,18.0,0.194,5.154,0.300,0.700,0.100,CONFERENCE_ACTIVITY,No,3.8200E-008,0.0,18.0,0.0,18.0,0.0,1.8,0.0,0.0,0.0,0.0,
 People Internal Gains Nominal, BREAK_ROOM_3_PEOPLE,BREAK_ROOM_OCCUPANCY,BREAK_ROOM_3,59.49,5.0,5.0,8.405E-002,11.898,0.300,0.700,0.100,BREAK_ROOM_ACTIVITY,No,3.8200E-008,1.0,1.0,1.0,1.0,1.0,1.0,1.0,1.0,1.0,1.0,
 People Internal Gains Nominal, MECHANICAL_3_PEOPLE,MECHANICAL_OCCUPANCY,MECHANICAL_3,89.54,1.0,1.0,1.117E-002,89.540,0.300,0.700,0.100,MECHANICAL_ACTIVITY,No,3.8200E-008,0.2,0.2,0.2,0.2,0.2,0.2,0.2,0.2,0.2,0.2,
 People Internal Gains Nominal, OFFICE_OPEN_3_PEOPLE,OFFICE_OPEN_OCCUPANCY,OFFICE_OPEN_3,125.54,6.0,6.0,4.779E-002,20.924,0.300,0.700,0.100,OFFICE_OPEN_ACTIVITY,No,3.8200E-008,0.0,6.0,0.0,6.0,0.0,0.6,0.0,0.0,0.0,0.0,
 People Internal Gains Nominal, OFFICE_PRIVATE_3_PEOPLE,OFFICE_OPEN_OCCUPANCY,OFFICE_PRIVATE_3,44.95,2.0,2.0,4.450E-002,22.473,0.300,0.700,0.100,OFFICE_OPEN_ACTIVITY,No,3.8200E-008,0.0,2.0,0.0,2.0,0.0,0.2,0.0,0.0,0.0,0.0,
 People Internal Gains Nominal, LOBBY_4_PEOPLE,LOBBY_OCCUPANCY,LOBBY_4,133.09,6.0,6.0,4.508E-002,22.182,0.300,0.700,0.100,LOBBY_ACTIVITY,No,3.8200E-008,1.2,1.2,1.2,1.2,1.2,1.2,1.2,1.2,1.2,1.2,
 People Internal Gains Nominal, CONFERENCE_4_PEOPLE,CONFERENCE_OCCUPANCY,CONFERENCE_4,59.88,11.0,11.0,0.184,5.443,0.300,0.700,0.100,CONFERENCE_ACTIVITY,No,3.8200E-008,0.0,11.0,0.0,11.0,0.0,1.1,0.0,0.0,0.0,0.0,
 People Internal Gains Nominal, MECHANICAL_4_PEOPLE,MECHANICAL_OCCUPANCY,MECHANICAL_4,70.52,1.0,1.0,1.418E-002,70.516,0.300,0.700,0.100,MECHANICAL_ACTIVITY,No,3.8200E-008,0.2,0.2,0.2,0.2,0.2,0.2,0.2,0.2,0.2,0.2,
 People Internal Gains Nominal, OFFICE_OPEN_4_PEOPLE,OFFICE_OPEN_OCCUPANCY,OFFICE_OPEN_4,236.51,11.0,11.0,4.651E-002,21.501,0.300,0.700,0.100,OFFICE_OPEN_ACTIVITY,No,3.8200E-008,0.0,11.0,0.0,11.0,0.0,1.1,0.0,0.0,0.0,0.0,
 People Internal Gains Nominal, OFFICE_PRIVATE_4_PEOPLE,OFFICE_OPEN_OCCUPANCY,OFFICE_PRIVATE_4,43.80,2.0,2.0,4.566E-002,21.899,0.300,0.700,0.100,OFFICE_OPEN_ACTIVITY,No,3.8200E-008,0.0,2.0,0.0,2.0,0.0,0.2,0.0,0.0,0.0,0.0,
 People Internal Gains Nominal, STORAGE_4_PEOPLE,STORAGE_OCCUPANCY,STORAGE_4,38.72,1.0,1.0,2.583E-002,38.721,0.300,0.700,0.100,STORAGE_ACTIVITY,No,3.8200E-008,0.2,0.2,0.2,0.2,0.2,0.2,0.2,0.2,0.2,0.2,
! <Lights Internal Gains Nominal>,Name,Schedule Name,Zone Name,Zone Floor Area {m2},# Zone Occupants,Lighting Level {W},Lights/Floor Area {W/m2},Lights per person {W/person},Fraction Return Air,Fraction Radiant,Fraction Short Wave,Fraction Convected,Fraction Replaceable,End-Use, Minimum Lighting Level for All Day Types {W},Maximum Lighting Level for All Day Types {W},Minimum Lighting Level for Weekdays {W}, Maximum Lighting Level for Weekdays {W},Minimum Lighting Level for Weekends/Holidays {W}, Maximum Lighting Level for Weekends /Holidays {W},Minimum Lighting Level for Summer Design Days {W}, Maximum Lighting Level for Summer Design Days {W},Minimum Lighting Level for Winter Design Days {W}, Maximum Lighting Level for Winter Design Days {W}
 Lights Internal Gains Nominal, CONFERENCE_0_LIGHTS,CONFERENCE_LIGHTING,CONFERENCE_0,83.24,16.0,899.038,10.800,56.190,0.000,0.300,0.200,0.500,1.000,General,0.000,899.038,89.904,899.0,0.000,179.808,0.000,0.000,0.000,0.000
 Lights Internal Gains Nominal, BREAK_ROOM_0_LIGHTS,BREAK_ROOM_LIGHTING,BREAK_ROOM_0,70.21,7.0,568.667,8.100,81.238,0.000,0.300,0.200,0.500,1.000,General,0.000,568.667,56.867,568.7,0.000,113.733,0.000,0.000,0.000,0.000
 Lights Internal Gains Nominal, MECHANICAL_0_LIGHTS,MECHANICAL_LIGHTING,MECHANICAL_0,93.89,1.0,507.002,5.400,507.002,0.000,0.300,0.200,0.500,1.000,General,0.000,507.002,50.700,507.0,0.000,101.400,0.000,0.000,0.000,0.000
 Lights Internal Gains Nominal, OFFICE_OPEN_0_LIGHTS,OFFICE_OPEN_LIGHTING,OFFICE_OPEN_0,293.74,14.0,3172.399,10.800,226.600,0.000,0.300,0.200,0.500,1.000,General,0.000,3172.399,317.240,3172.4,0.000,634.480,0.000,0.000,0.000,0.000
 Lights Internal Gains Nominal, OFFICE_PRIVATE_0_LIGHTS,OFFICE_OPEN_LIGHTING,OFFICE_PRIVATE_0,21.46,1.0,231.741,10.800,231.741,0.000,0.300,0.200,0.500,1.000,General,0.000,231.741,23.174,231.7,0.000,46.348,0.000,0.000,0.000,0.000
 Lights Internal Gains Nominal, STORAGE_0_LIGHTS,STORAGE_LIGHTING,STORAGE_0,14.03,1.0,75.759,5.400,75.759,0.000,0.300,0.200,0.500,1.000,General,0.000,75.759,7.576,75.8,0.000,15.152,0.000,0.000,0.000,0.000
 Lights Internal Gains Nominal, LOBBY_1_LIGHTS,LOBBY_LIGHTING,LOBBY_1,132.50,6.0,1709.226,12.900,284.871,0.000,0.300,0.200,0.500,1.000,General,0.000,1709.226,170.923,1709.2,0.000,341.845,0.000,0.000,0.000,0.000
 Lights Internal Gains Nominal, BREAK_ROOM_1_LIGHTS,BREAK_ROOM_LIGHTING,BREAK_ROOM_1,64.25,6.0,520.406,8.100,86.734,0.000,0.300,0.200,0.500,1.000,General,0.000,520.406,52.041,520.4,0.000,104.081,0.000,0.000,0.000,0.000
 Lights Internal Gains Nominal, OFFICE_OPEN_1_LIGHTS,OFFICE_OPEN_LIGHTING,OFFICE_OPEN_1,193.95,9.0,2094.640,10.800,232.738,0.000,0.300,0.200,0.500,1.000,General,0.000,2094.640,209.464,2094.6,0.000,418.928,0.000,0.000,0.000,0.000
 Lights Internal Gains Nominal, OFFICE_PRIVATE_1_LIGHTS,OFFICE_OPEN_LIGHTING,OFFICE_PRIVATE_1,41.35,2.0,446.617,10.800,223.308,0.000,0.300,0.200,0.500,1.000,General,0.000,446.617,44.662,446.6,0.000,89.323,0.000,0.000,0.000,0.000
 Lights Internal Gains Nominal, STORAGE_1_LIGHTS,STORAGE_LIGHTING,STORAGE_1,10.24,1.0,55.298,5.400,55.298,0.000,0.300,0.200,0.500,1.000,General,0.000,55.298,5.530,55.3,0.000,11.060,0.000,0.000,0.000,0.000
 Lights Internal Gains Nominal, LOBBY_2_LIGHTS,LOBBY_LIGHTING,LOBBY_2,108.89,5.0,1404.681,12.900,280.936,0.000,0.300,0.200,0.500,1.000,General,0.000,1404.681,140.468,1404.7,0.000,280.936,0.000,0.000,0.000,0.000
 Lights Internal Gains Nominal, CONFERENCE_2_LIGHTS,CONFERENCE_LIGHTING,CONFERENCE_2,83.86,16.0,905.635,10.800,56.602,0.000,0.300,0.200,0.500,1.000,General,0.000,905.635,90.563,905.6,0.000,181.127,0.000,0.000,0.000,0.000
 Lights Internal Gains Nominal, BREAK_ROOM_2_LIGHTS,BREAK_ROOM_LIGHTING,BREAK_ROOM_2,60.96,6.0,493.743,8.100,82.291,0.000,0.300,0.200,0.500,1.000,General,0.000,493.743,49.374,493.7,0.000,98.749,0.000,0.000,0.000,0.000
 Lights Internal Gains Nominal, MECHANICAL_2_LIGHTS,MECHANICAL_LIGHTING,MECHANICAL_2,97.20,1.0,524.899,5.400,524.899,0.000,0.300,0.200,0.500,1.000,General,0.000,524.899,52.490,524.9,0.000,104.980,0.000,0.000,0.000,0.000
 Lights Internal Gains Nominal, OFFICE_OPEN_2_LIGHTS,OFFICE_OPEN_LIGHTING,OFFICE_OPEN_2,401.61,20.0,4337.435,10.800,216.872,0.000,0.300,0.200,0.500,1.000,General,0.000,4337.435,433.743,4337.4,0.000,867.487,0.000,0.000,0.000,0.000
 Lights Internal Gains Nominal, OFFICE_PRIVATE_2_LIGHTS,OFFICE_OPEN_LIGHTING,OFFICE_PRIVATE_2,24.01,1.0,259.330,10.800,259.330,0.000,0.300,0.200,0.500,1.000,General,0.000,259.330,25.933,259.3,0.000,51.866,0.000,0.000,0.000,0.000
 Lights Internal Gains Nominal, STORAGE_2_LIGHTS,STORAGE_LIGHTING,STORAGE_2,25.35,1.0,136.915,5.400,136.915,0.000,0.300,0.200,0.500,1.000,General,0.000,136.915,13.691,136.9,0.000,27.383,0.000,0.000,0.000,0.000
 Lights Internal Gains Nominal, LOBBY_3_LIGHTS,LOBBY_LIGHTING,LOBBY_3,149.31,7.0,1926.054,12.900,275.151,0.000,0.300,0.200,0.500,1.000,General,0.000,1926.054,192.605,1926.1,0.000,385.211,0.000,0.000,0.000,0.000
 Lights Internal Gains Nominal, CONFERENCE_3_LIGHTS,CONFERENCE_LIGHTING,CONFERENCE_3,92.76,18.0,1001.857,10.800,55.659,0.000,0.300,0.200,0.500,1.000,General,0.000,1001.857,100.186,1001.9,0.000,200.371,0.000,0.000,0.000,0.000
 Lights Internal Gains Nominal, BREAK_ROOM_3_LIGHTS,BREAK_ROOM_LIGHTING,BREAK_ROOM_3,59.49,5.0,481.850,8.100,96.370,0.000,0.300,0.200,0.500,1.000,General,0.000,481.850,48.185,481.8,0.000,96.370,0.000,0.000,0.000,0.000
 Lights Internal Gains Nominal, MECHANICAL_3_LIGHTS,MECHANICAL_LIGHTING,MECHANICAL_3,89.54,1.0,483.516,5.400,483.516,0.000,0.300,0.200,0.500,1.000,General,0.000,483.516,48.352,483.5,0.000,96.703,0.000,0.000,0.000,0.000
 Lights Internal Gains Nominal, OFFICE_OPEN_3_LIGHTS,OFFICE_OPEN_LIGHTING,OFFICE_OPEN_3,125.54,6.0,1355.870,10.800,225.978,0.000,0.300,0.200,0.500,1.000,General,0.000,1355.870,135.587,1355.9,0.000,271.174,0.000,0.000,0.000,0.000
 Lights Internal Gains Nominal, OFFICE_PRIVATE_3_LIGHTS,OFFICE_OPEN_LIGHTING,OFFICE_PRIVATE_3,44.95,2.0,485.415,10.800,242.707,0.000,0.300,0.200,0.500,1.000,General,0.000,485.415,48.541,485.4,0.000,97.083,0.000,0.000,0.000,0.000
 Lights Internal Gains Nominal, LOBBY_4_LIGHTS,LOBBY_LIGHTING,LOBBY_4,133.09,6.0,1716.866,12.900,286.144,0.000,0.300,0.200,0.500,1.000,General,0.000,1716.866,171.687,1716.9,0.000,343.373,0.000,0.000,0.000,0.000
 Lights Internal Gains Nominal, CONFERENCE_4_LIGHTS,CONFERENCE_LIGHTING,CONFERENCE_4,59.88,11.0,646.687,10.800,58.790,0.000,0.300,0.200,0.500,1.000,General,0.000,646.687,64.669,646.7,0.000,129.337,0.000,0.000,0.000,0.000
 Lights Internal Gains Nominal, MECHANICAL_4_LIGHTS,MECHANICAL_LIGHTING,MECHANICAL_4,70.52,1.0,380.787,5.400,380.787,0.000,0.300,0.200,0.500,1.000,General,0.000,380.787,38.079,380.8,0.000,76.157,0.000,0.000,0.000,0.000
 Lights Internal Gains Nominal, OFFICE_OPEN_4_LIGHTS,OFFICE_OPEN_LIGHTING,OFFICE_OPEN_4,236.51,11.0,2554.360,10.800,232.215,0.000,0.300,0.200,0.500,1.000,General,0.000,2554.360,255.436,2554.4,0.000,510.872,0.000,0.000,0.000,0.000
 Lights Internal Gains Nominal, OFFICE_PRIVATE_4_LIGHTS,OFFICE_OPEN_LIGHTING,OFFICE_PRIVATE_4,43.80,2.0,473.010,10.800,236.505,0.000,0.300,0.200,0.500,1.000,General,0.000,473.010,47.301,473.0,0.000,94.602,0.000,0.000,0.000,0.000
 Lights Internal Gains Nominal, STORAGE_4_LIGHTS,STORAGE_LIGHTING,STORAGE_4,38.72,1.0,209.091,5.400,209.091,0.000,0.300,0.200,0.500,1.000,General,0.000,209.091,20.909,209.1,0.000,41.818,0.000,0.000,0.000,0.000
! <ElectricEquipment Internal Gains Nominal>,Name,Schedule Name,Zone Name,Zone Floor Area {m2},# Zone Occupants,Equipment Level {W},Equipment/Floor Area {W/m2},Equipment per person {W/person},Fraction Latent,Fraction Radiant,Fraction Lost,Fraction Convected,End-Use SubCategory,Minimum Equipment Level for All Day Types {W},Maximum Equipment Level for All Day Types {W},Minimum Equipment Level for Weekdays {W}, Maximum Equipment Level for Weekdays {W},Minimum Equipment Level for Weekends/Holidays {W}, Maximum Equipment Level for Weekends /Holidays {W},Minimum Equipment Level for Summer Design Days {W}, Maximum Equipment Level for Summer Design Days {W},Minimum Equipment Level for Winter Design Days {W}, Maximum Equipment Level for Winter Design Days {W}
 ElectricEquipment Internal Gains Nominal, CONFERENCE_0_EQUIPMENT,CONFERENCE_EQUIPMENT,CONFERENCE_0,83.24,16.0,674.279,8.100,42.142,0.100,0.200,0.000,0.700,General,0.000,539.423,202.284,539.423,0.000,202.284,0.000,0.000,0.000,0.000
 ElectricEquipment Internal Gains Nominal, BREAK_ROOM_0_EQUIPMENT,BREAK_ROOM_EQUIPMENT,BREAK_ROOM_0,70.21,7.0,1053.086,15.000,150.441,0.100,0.200,0.000,0.700,General,0.000,842.469,315.926,842.469,0.000,315.926,0.000,0.000,0.000,0.000
 ElectricEquipment Internal Gains Nominal, MECHANICAL_0_EQUIPMENT,MECHANICAL_EQUIPMENT,MECHANICAL_0,93.89,1.0,0.000,0.000,0.000,0.100,0.200,0.000,0.700,General,0.000,0.000,0.000,0.000,0.000,0.000,0.000,0.000,0.000,0.000
 ElectricEquipment Internal Gains Nominal, OFFICE_OPEN_0_EQUIPMENT,OFFICE_OPEN_EQUIPMENT,OFFICE_OPEN_0,293.74,14.0,2379.299,8.100,169.950,0.100,0.200,0.000,0.700,General,0.000,1903.440,713.790,1903.440,0.000,713.790,0.000,0.000,0.000,0.000
 ElectricEquipment Internal Gains Nominal, OFFICE_PRIVATE_0_EQUIPMENT,OFFICE_OPEN_EQUIPMENT,OFFICE_PRIVATE_0,21.46,1.0,173.806,8.100,173.806,0.100,0.200,0.000,0.700,General,0.000,139.045,52.142,139.045,0.000,52.142,0.000,0.000,0.000,0.000
 ElectricEquipment Internal Gains Nominal, STORAGE_0_EQUIPMENT,STORAGE_EQUIPMENT,STORAGE_0,14.03,1.0,15.432,1.100,15.432,0.100,0.200,0.000,0.700,General,0.000,12.346,4.630,12.346,0.000,4.630,0.000,0.000,0.000,0.000
 ElectricEquipment Internal Gains Nominal, LOBBY_1_EQUIPMENT,LOBBY_EQUIPMENT,LOBBY_1,132.50,6.0,423.994,3.200,70.666,0.100,0.200,0.000,0.700,General,0.000,339.195,127.198,339.195,0.000,127.198,0.000,0.000,0.000,0.000
 ElectricEquipment Internal Gains Nominal, BREAK_ROOM_1_EQUIPMENT,BREAK_ROOM_EQUIPMENT,BREAK_ROOM_1,64.25,6.0,963.714,15.000,160.619,0.100,0.200,0.000,0.700,General,0.000,770.971,289.114,770.971,0.000,289.114,0.000,0.000,0.000,0.000
 ElectricEquipment Internal Gains Nominal, OFFICE_OPEN_1_EQUIPMENT,OFFICE_OPEN_EQUIPMENT,OFFICE_OPEN_1,193.95,9.0,1570.980,8.100,174.553,0.100,0.200,0.000,0.700,General,0.000,1256.784,471.294,1256.784,0.000,471.294,0.000,0.000,0.000,0.000
 ElectricEquipment Internal Gains Nominal, OFFICE_PRIVATE_1_EQUIPMENT,OFFICE_OPEN_EQUIPMENT,OFFICE_PRIVATE_1,41.35,2.0,334.963,8.100,167.481,0.100,0.200,0.000,0.700,General,0.000,267.970,100.489,267.970,0.000,100.489,0.000,0.000,0.000,0.000
 ElectricEquipment Internal Gains Nominal, STORAGE_1_EQUIPMENT,STORAGE_EQUIPMENT,STORAGE_1,10.24,1.0,11.264,1.100,11.264,0.100,0.200,0.000,0.700,General,0.000,9.012,3.379,9.012,0.000,3.379,0.000,0.000,0.000,0.000
 ElectricEquipment Internal Gains Nominal, LOBBY_2_EQUIPMENT,LOBBY_EQUIPMENT,LOBBY_2,108.89,5.0,348.448,3.200,69.690,0.100,0.200,0.000,0.700,General,0.000,278.758,104.534,278.758,0.000,104.534,0.000,0.000,0.000,0.000
 ElectricEquipment Internal Gains Nominal, CONFERENCE_2_EQUIPMENT,CONFERENCE_EQUIPMENT,CONFERENCE_2,83.86,16.0,679.226,8.100,42.452,0.100,0.200,0.000,0.700,General,0.000,543.381,203.768,543.381,0.000,203.768,0.000,0.000,0.000,0.000
 ElectricEquipment Internal Gains Nominal, BREAK_ROOM_2_EQUIPMENT,BREAK_ROOM_EQUIPMENT,BREAK_ROOM_2,60.96,6.0,914.339,15.000,152.390,0.100,0.200,0.000,0.700,General,0.000,731.471,274.302,731.471,0.000,274.302,0.000,0.000,0.000,0.000
 ElectricEquipment Internal Gains Nominal, MECHANICAL_2_EQUIPMENT,MECHANICAL_EQUIPMENT,MECHANICAL_2,97.20,1.0,0.000,0.000,0.000,0.100,0.200,0.000,0.700,General,0.000,0.000,0.000,0.000,0.000,0.000,0.000,0.000,0.000,0.000
 ElectricEquipment Internal Gains Nominal, OFFICE_OPEN_2_EQUIPMENT,OFFICE_OPEN_EQUIPMENT,OFFICE_OPEN_2,401.61,20.0,3253.076,8.100,162.654,0.100,0.200,0.000,0.700,General,0.000,2602.461,975.923,2602.461,0.000,975.923,0.000,0.000,0.000,0.000
 ElectricEquipment Internal Gains Nominal, OFFICE_PRIVATE_2_EQUIPMENT,OFFICE_OPEN_EQUIPMENT,OFFICE_PRIVATE_2,24.01,1.0,194.497,8.100,194.497,0.100,0.200,0.000,0.700,General,0.000,155.598,58.349,155.598,0.000,58.349,0.000,0.000,0.000,0.000
 ElectricEquipment Internal Gains Nominal, STORAGE_2_EQUIPMENT,STORAGE_EQUIPMENT,STORAGE_2,25.35,1.0,27.890,1.100,27.890,0.100,0.200,0.000,0.700,General,0.000,22.312,8.367,22.312,0.000,8.367,0.000,0.000,0.000,0.000
 ElectricEquipment Internal Gains Nominal, LOBBY_3_EQUIPMENT,LOBBY_EQUIPMENT,LOBBY_3,149.31,7.0,477.781,3.200,68.254,0.100,0.200,0.000,0.700,General,0.000,382.225,143.334,382.225,0.000,143.334,0.000,0.000,0.000,0.000
 ElectricEquipment Internal Gains Nominal, CONFERENCE_3_EQUIPMENT,CONFERENCE_EQUIPMENT,CONFERENCE_3,92.76,18.0,751.393,8.100,41.744,0.100,0.200,0.000,0.700,General,0.000,601.114,225.418,601.114,0.000,225.418,0.000,0.000,0.000,0.000
 ElectricEquipment Internal Gains Nominal, BREAK_ROOM_3_EQUIPMENT,BREAK_ROOM_EQUIPMENT,BREAK_ROOM_3,59.49,5.0,892.314,15.000,178.463,0.100,0.200,0.000,0.700,General,0.000,713.851,267.694,713.851,0.000,267.694,0.000,0.000,0.000,0.000
 ElectricEquipment Internal Gains Nominal, MECHANICAL_3_EQUIPMENT,MECHANICAL_EQUIPMENT,MECHANICAL_3,89.54,1.0,0.000,0.000,0.000,0.100,0.200,0.000,0.700,General,0.000,0.000,0.000,0.000,0.000,0.000,0.000,0.000,0.000,0.000
 ElectricEquipment Internal Gains Nominal, OFFICE_OPEN_3_EQUIPMENT,OFFICE_OPEN_EQUIPMENT,OFFICE_OPEN_3,125.54,6.0,1016.903,8.100,169.484,0.100,0.200,0.000,0.700,General,0.000,813.522,305.071,813.522,0.000,305.071,0.000,0.000,0.000,0.000
 ElectricEquipment Internal Gains Nominal, OFFICE_PRIVATE_3_EQUIPMENT,OFFICE_OPEN_EQUIPMENT,OFFICE_PRIVATE_3,44.95,2.0,364.061,8.100,182.031,0.100,0.200,0.000,0.700,General,0.000,291.249,109.218,291.249,0.000,109.218,0.000,0.000,0.000,0.000
 ElectricEquipment Internal Gains Nominal, LOBBY_4_EQUIPMENT,LOBBY_EQUIPMENT,LOBBY_4,133.09,6.0,425.889,3.200,70.982,0.100,0.200,0.000,0.700,General,0.000,340.711,127.767,340.711,0.000,127.767,0.000,0.000,0.000,0.000
 ElectricEquipment Internal Gains Nominal, CONFERENCE_4_EQUIPMENT,CONFERENCE_EQUIPMENT,CONFERENCE_4,59.88,11.0,485.015,8.100,44.092,0.100,0.200,0.000,0.700,General,0.000,388.012,145.505,388.012,0.000,145.505,0.000,0.000,0.000,0.000
 ElectricEquipment Internal Gains Nominal, MECHANICAL_4_EQUIPMENT,MECHANICAL_EQUIPMENT,MECHANICAL_4,70.52,1.0,0.000,0.000,0.000,0.100,0.200,0.000,0.700,General,0.000,0.000,0.000,0.000,0.000,0.000,0.000,0.000,0.000,0.000
 ElectricEquipment Internal Gains Nominal, OFFICE_OPEN_4_EQUIPMENT,OFFICE_OPEN_EQUIPMENT,OFFICE_OPEN_4,236.51,11.0,1915.770,8.100,174.161,0.100,0.200,0.000,0.700,General,0.000,1532.616,574.731,1532.616,0.000,574.731,0.000,0.000,0.000,0.000
 ElectricEquipment Internal Gains Nominal, OFFICE_PRIVATE_4_EQUIPMENT,OFFICE_OPEN_EQUIPMENT,OFFICE_PRIVATE_4,43.80,2.0,354.757,8.100,177.379,0.100,0.200,0.000,0.700,General,0.000,283.806,106.427,283.806,0.000,106.427,0.000,0.000,0.000,0.000
 ElectricEquipment Internal Gains Nominal, STORAGE_4_EQUIPMENT,STORAGE_EQUIPMENT,STORAGE_4,38.72,1.0,42.593,1.100,42.593,0.100,0.200,0.000,0.700,General,0.000,34.074,12.778,34.074,0.000,12.778,0.000,0.000,0.000,0.000
! <Enclosure/Window Adjacency Daylighting Counts>, Enclosure Name, Number of Exterior Windows, Number of Exterior Windows in Adjacent Enclosures
Enclosure/Window Adjacency Daylighting Counts, CONFERENCE_0,4,0
Enclosure/Window Adjacency Daylighting Counts, BREAK_ROOM_0,4,0
Enclosure/Window Adjacency Daylighting Counts, OFFICE_OPEN_0,4,0
Enclosure/Window Adjacency Daylighting Counts, OFFICE_PRIVATE_0,4,0
Enclosure/Window Adjacency Daylighting Counts, LOBBY_1,4,0
Enclosure/Window Adjacency Daylighting Counts, BREAK_ROOM_1,4,0
Enclosure/Window Adjacency Daylighting Counts, OFFICE_OPEN_1,4,0
Enclosure/Window Adjacency Daylighting Counts, OFFICE_PRIVATE_1,4,0
Enclosure/Window Adjacency Daylighting Counts, LOBBY_2,4,0
Enclosure/Window Adjacency Daylighting Counts, CONFERENCE_2,4,0
Enclosure/Window Adjacency Daylighting Counts, BREAK_ROOM_2,4,0
Enclosure/Window Adjacency Daylighting Counts, OFFICE_OPEN_2,4,0
Enclosure/Window Adjacency Daylighting Counts, OFFICE_PRIVATE_2,4,0
Enclosure/Window Adjacency Daylighting Counts, LOBBY_3,4,0
Enclosure/Window Adjacency Daylighting Counts, CONFERENCE_3,4,0
Enclosure/Window Adjacency Daylighting Counts, BREAK_ROOM_3,4,0
Enclosure/Window Adjacency Daylighting Counts, OFFICE_OPEN_3,4,0
Enclosure/Window Adjacency Daylighting Counts, OFFICE_PRIVATE_3,4,0
Enclosure/Window Adjacency Daylighting Counts, LOBBY_4,4,0
Enclosure/Window Adjacency Daylighting Counts, CONFERENCE_4,4,0
Enclosure/Window Adjacency Daylighting Counts, OFFICE_OPEN_4,4,0
Enclosure/Window Adjacency Daylighting Counts, OFFICE_PRIVATE_4,4,0
! <Enclosure/Window Adjacency Daylighting Matrix>, Enclosure Name, Number of Adjacent Enclosures with Windows,Adjacent Enclosure Names - 1st 100 (max)
Enclosure/Window Adjacency Daylighting Matrix, CONFERENCE_0,0
Enclosure/Window Adjacency Daylighting Matrix, BREAK_ROOM_0,0
Enclosure/Window Adjacency Daylighting Matrix, OFFICE_OPEN_0,0
Enclosure/Window Adjacency Daylighting Matrix, OFFICE_PRIVATE_0,0
Enclosure/Window Adjacency Daylighting Matrix, LOBBY_1,0
Enclosure/Window Adjacency Daylighting Matrix, BREAK_ROOM_1,0
Enclosure/Window Adjacency Daylighting Matrix, OFFICE_OPEN_1,0
Enclosure/Window Adjacency Daylighting Matrix, OFFICE_PRIVATE_1,0
Enclosure/Window Adjacency Daylighting Matrix, LOBBY_2,0
Enclosure/Window Adjacency Daylighting Matrix, CONFERENCE_2,0
Enclosure/Window Adjacency Daylighting Matrix, BREAK_ROOM_2,0
Enclosure/Window Adjacency Daylighting Matrix, OFFICE_OPEN_2,0
Enclosure/Window Adjacency Daylighting Matrix, OFFICE_PRIVATE_2,0
Enclosure/Window Adjacency Daylighting Matrix, LOBBY_3,0
Enclosure/Window Adjacency Daylighting Matrix, CONFERENCE_3,0
Enclosure/Window Adjacency Daylighting Matrix, BREAK_ROOM_3,0
Enclosure/Window Adjacency Daylighting Matrix, OFFICE_OPEN_3,0
Enclosure/Window Adjacency Daylighting Matrix, OFFICE_PRIVATE_3,0
Enclosure/Window Adjacency Daylighting Matrix, LOBBY_4,0
Enclosure/Window Adjacency Daylighting Matrix, CONFERENCE_4,0
Enclosure/Window Adjacency Daylighting Matrix, OFFICE_OPEN_4,0
Enclosure/Window Adjacency Daylighting Matrix, OFFICE_PRIVATE_4,0
! <ZoneInfiltration Airflow Stats Nominal>,Name,Schedule Name,Zone Name, Zone Floor Area {m2}, # Zone Occupants,Design Volume Flow Rate {m3/s},Volume Flow Rate/Floor Area {m3/s-m2},Volume Flow Rate/Exterior Surface Area {m3/s-m2},ACH - Air Changes per Hour,Equation A - Constant Term Coefficient {},Equation B - Temperature Term Coefficient {1/C},Equation C - Velocity Term Coefficient {s/m}, Equation D - Velocity Squared Term Coefficient {s2/m2}
 ZoneInfiltration Airflow Stats Nominal, CONFERENCE_0_INFILTRATION,CONFERENCE_0_INFILTRATION_SCHEDULE,CONFERENCE_0,83.24,16.0,0.000,0.000,0.000,0.000,0.000,0.000,0.000,0.000
 ZoneInfiltration Airflow Stats Nominal, BREAK_ROOM_0_INFILTRATION,BREAK_ROOM_0_INFILTRATION_SCHEDULE,BREAK_ROOM_0,70.21,7.0,0.000,0.000,0.000,0.000,0.000,0.000,0.000,0.000
 ZoneInfiltration Airflow Stats Nominal, MECHANICAL_0_INFILTRATION,MECHANICAL_0_INFILTRATION_SCHEDULE,MECHANICAL_0,93.89,1.0,0.000,0.000,0.000,0.000,0.000,0.000,0.000,0.000
 ZoneInfiltration Airflow Stats Nominal, OFFICE_OPEN_0_INFILTRATION,OFFICE_OPEN_0_INFILTRATION_SCHEDULE,OFFICE_OPEN_0,293.74,14.0,0.000,0.000,0.000,0.000,0.000,0.000,0.000,0.000
 ZoneInfiltration Airflow Stats Nominal, OFFICE_PRIVATE_0_INFILTRATION,OFFICE_PRIVATE_0_INFILTRATION_SCHEDULE,OFFICE_PRIVATE_0,21.46,1.0,0.000,0.000,0.000,0.000,0.000,0.000,0.000,0.000
 ZoneInfiltration Airflow Stats Nominal, STORAGE_0_INFILTRATION,STORAGE_0_INFILTRATION_SCHEDULE,STORAGE_0,14.03,1.0,0.000,0.000,0.000,0.000,0.000,0.000,0.000,0.000
 ZoneInfiltration Airflow Stats Nominal, LOBBY_1_INFILTRATION,LOBBY_1_INFILTRATION_SCHEDULE,LOBBY_1,132.50,6.0,0.000,0.000,0.000,0.000,0.000,0.000,0.000,0.000
 ZoneInfiltration Airflow Stats Nominal, BREAK_ROOM_1_INFILTRATION,BREAK_ROOM_1_INFILTRATION_SCHEDULE,BREAK_ROOM_1,64.25,6.0,0.000,0.000,0.000,0.000,0.000,0.000,0.000,0.000
 ZoneInfiltration Airflow Stats Nominal, OFFICE_OPEN_1_INFILTRATION,OFFICE_OPEN_1_INFILTRATION_SCHEDULE,OFFICE_OPEN_1,193.95,9.0,0.000,0.000,0.000,0.000,0.000,0.000,0.000,0.000
 ZoneInfiltration Airflow Stats Nominal, OFFICE_PRIVATE_1_INFILTRATION,OFFICE_PRIVATE_1_INFILTRATION_SCHEDULE,OFFICE_PRIVATE_1,41.35,2.0,0.000,0.000,0.000,0.000,0.000,0.000,0.000,0.000
 ZoneInfiltration Airflow Stats Nominal, STORAGE_1_INFILTRATION,STORAGE_1_INFILTRATION_SCHEDULE,STORAGE_1,10.24,1.0,0.000,0.000,0.000,0.000,0.000,0.000,0.000,0.000
 ZoneInfiltration Airflow Stats Nominal, LOBBY_2_INFILTRATION,LOBBY_2_INFILTRATION_SCHEDULE,LOBBY_2,108.89,5.0,0.000,0.000,0.000,0.000,0.000,0.000,0.000,0.000
 ZoneInfiltration Airflow Stats Nominal, CONFERENCE_2_INFILTRATION,CONFERENCE_2_INFILTRATION_SCHEDULE,CONFERENCE_2,83.86,16.0,0.000,0.000,0.000,0.000,0.000,0.000,0.000,0.000
 ZoneInfiltration Airflow Stats Nominal, BREAK_ROOM_2_INFILTRATION,BREAK_ROOM_2_INFILTRATION_SCHEDULE,BREAK_ROOM_2,60.96,6.0,0.000,0.000,0.000,0.000,0.000,0.000,0.000,0.000
 ZoneInfiltration Airflow Stats Nominal, MECHANICAL_2_INFILTRATION,MECHANICAL_2_INFILTRATION_SCHEDULE,MECHANICAL_2,97.20,1.0,0.000,0.000,0.000,0.000,0.000,0.000,0.000,0.000
 ZoneInfiltration Airflow Stats Nominal, OFFICE_OPEN_2_INFILTRATION,OFFICE_OPEN_2_INFILTRATION_SCHEDULE,OFFICE_OPEN_2,401.61,20.0,0.000,0.000,0.000,0.000,0.000,0.000,0.000,0.000
 ZoneInfiltration Airflow Stats Nominal, OFFICE_PRIVATE_2_INFILTRATION,OFFICE_PRIVATE_2_INFILTRATION_SCHEDULE,OFFICE_PRIVATE_2,24.01,1.0,0.000,0.000,0.000,0.000,0.000,0.000,0.000,0.000
 ZoneInfiltration Airflow Stats Nominal, STORAGE_2_INFILTRATION,STORAGE_2_INFILTRATION_SCHEDULE,STORAGE_2,25.35,1.0,0.000,0.000,0.000,0.000,0.000,0.000,0.000,0.000
 ZoneInfiltration Airflow Stats Nominal, LOBBY_3_INFILTRATION,LOBBY_3_INFILTRATION_SCHEDULE,LOBBY_3,149.31,7.0,0.000,0.000,0.000,0.000,0.000,0.000,0.000,0.000
 ZoneInfiltration Airflow Stats Nominal, CONFERENCE_3_INFILTRATION,CONFERENCE_3_INFILTRATION_SCHEDULE,CONFERENCE_3,92.76,18.0,0.000,0.000,0.000,0.000,0.000,0.000,0.000,0.000
 ZoneInfiltration Airflow Stats Nominal, BREAK_ROOM_3_INFILTRATION,BREAK_ROOM_3_INFILTRATION_SCHEDULE,BREAK_ROOM_3,59.49,5.0,0.000,0.000,0.000,0.000,0.000,0.000,0.000,0.000
 ZoneInfiltration Airflow Stats Nominal, MECHANICAL_3_INFILTRATION,MECHANICAL_3_INFILTRATION_SCHEDULE,MECHANICAL_3,89.54,1.0,0.000,0.000,0.000,0.000,0.000,0.000,0.000,0.000
 ZoneInfiltration Airflow Stats Nominal, OFFICE_OPEN_3_INFILTRATION,OFFICE_OPEN_3_INFILTRATION_SCHEDULE,OFFICE_OPEN_3,125.54,6.0,0.000,0.000,0.000,0.000,0.000,0.000,0.000,0.000
 ZoneInfiltration Airflow Stats Nominal, OFFICE_PRIVATE_3_INFILTRATION,OFFICE_PRIVATE_3_INFILTRATION_SCHEDULE,OFFICE_PRIVATE_3,44.95,2.0,0.000,0.000,0.000,0.000,0.000,0.000,0.000,0.000
 ZoneInfiltration Airflow Stats Nominal, LOBBY_4_INFILTRATION,LOBBY_4_INFILTRATION_SCHEDULE,LOBBY_4,133.09,6.0,0.000,0.000,0.000,0.000,0.000,0.000,0.000,0.000
 ZoneInfiltration Airflow Stats Nominal, CONFERENCE_4_INFILTRATION,CONFERENCE_4_INFILTRATION_SCHEDULE,CONFERENCE_4,59.88,11.0,0.000,0.000,0.000,0.000,0.000,0.000,0.000,0.000
 ZoneInfiltration Airflow Stats Nominal, MECHANICAL_4_INFILTRATION,MECHANICAL_4_INFILTRATION_SCHEDULE,MECHANICAL_4,70.52,1.0,0.000,0.000,0.000,0.000,0.000,0.000,0.000,0.000
 ZoneInfiltration Airflow Stats Nominal, OFFICE_OPEN_4_INFILTRATION,OFFICE_OPEN_4_INFILTRATION_SCHEDULE,OFFICE_OPEN_4,236.51,11.0,0.000,0.000,0.000,0.000,0.000,0.000,0.000,0.000
 ZoneInfiltration Airflow Stats Nominal, OFFICE_PRIVATE_4_INFILTRATION,OFFICE_PRIVATE_4_INFILTRATION_SCHEDULE,OFFICE_PRIVATE_4,43.80,2.0,0.000,0.000,0.000,0.000,0.000,0.000,0.000,0.000
 ZoneInfiltration Airflow Stats Nominal, STORAGE_4_INFILTRATION,STORAGE_4_INFILTRATION_SCHEDULE,STORAGE_4,38.72,1.0,0.000,0.000,0.000,0.000,0.000,0.000,0.000,0.000
! <AirFlow Model>, Simple
 AirFlow Model, Simple
! <RoomAir Model>, Zone Name, Mixing/Mundt/UCSDDV/UCSDCV/UCSDUFI/UCSDUFE/User Defined
RoomAir Model,CONFERENCE_0,Mixing/Well-Stirred
RoomAir Model,BREAK_ROOM_0,Mixing/Well-Stirred
RoomAir Model,MECHANICAL_0,Mixing/Well-Stirred
RoomAir Model,OFFICE_OPEN_0,Mixing/Well-Stirred
RoomAir Model,OFFICE_PRIVATE_0,Mixing/Well-Stirred
RoomAir Model,STORAGE_0,Mixing/Well-Stirred
RoomAir Model,LOBBY_1,Mixing/Well-Stirred
RoomAir Model,BREAK_ROOM_1,Mixing/Well-Stirred
RoomAir Model,OFFICE_OPEN_1,Mixing/Well-Stirred
RoomAir Model,OFFICE_PRIVATE_1,Mixing/Well-Stirred
RoomAir Model,STORAGE_1,Mixing/Well-Stirred
RoomAir Model,LOBBY_2,Mixing/Well-Stirred
RoomAir Model,CONFERENCE_2,Mixing/Well-Stirred
RoomAir Model,BREAK_ROOM_2,Mixing/Well-Stirred
RoomAir Model,MECHANICAL_2,Mixing/Well-Stirred
RoomAir Model,OFFICE_OPEN_2,Mixing/Well-Stirred
RoomAir Model,OFFICE_PRIVATE_2,Mixing/Well-Stirred
RoomAir Model,STORAGE_2,Mixing/Well-Stirred
RoomAir Model,LOBBY_3,Mixing/Well-Stirred
RoomAir Model,CONFERENCE_3,Mixing/Well-Stirred
RoomAir Model,BREAK_ROOM_3,Mixing/Well-Stirred
RoomAir Model,MECHANICAL_3,Mixing/Well-Stirred
RoomAir Model,OFFICE_OPEN_3,Mixing/Well-Stirred
RoomAir Model,OFFICE_PRIVATE_3,Mixing/Well-Stirred
RoomAir Model,LOBBY_4,Mixing/Well-Stirred
RoomAir Model,CONFERENCE_4,Mixing/Well-Stirred
RoomAir Model,MECHANICAL_4,Mixing/Well-Stirred
RoomAir Model,OFFICE_OPEN_4,Mixing/Well-Stirred
RoomAir Model,OFFICE_PRIVATE_4,Mixing/Well-Stirred
RoomAir Model,STORAGE_4,Mixing/Well-Stirred
! <AirflowNetwork Model:Control>, No Multizone or Distribution/Multizone with Distribution/Multizone without Distribution/Multizone with Distribution only during Fan Operation
AirflowNetwork Model:Control,NoMultizoneOrDistribution
! <Zone Volume Capacitance Multiplier>, Sensible Heat Capacity Multiplier, Moisture Capacity Multiplier, Carbon Dioxide Capacity Multiplier, Generic Contaminant Capacity Multiplier
Zone Volume Capacitance Multiplier,   1.000 ,   1.000,   1.000,   1.000
! <Component Sizing Information>, Component Type, Component Name, Input Field Description, Value
 Component Sizing Information, AirTerminal:SingleDuct:VAV:Reheat, CONFERENCE_0_Z1_VAVTERMINAL, User-Specified Maximum Air Flow Rate [m3/s], 0.41622
 Component Sizing Information, AirTerminal:SingleDuct:VAV:Reheat, CONFERENCE_0_Z1_VAVTERMINAL, Design Size Constant Minimum Air Flow Fraction, 0.20000
 Component Sizing Information, AirTerminal:SingleDuct:VAV:Reheat, CONFERENCE_0_Z1_VAVTERMINAL, User-Specified Constant Minimum Air Flow Fraction, 0.20000
 Component Sizing Information, AirTerminal:SingleDuct:VAV:Reheat, CONFERENCE_0_Z1_VAVTERMINAL, Design Size Minimum Air Flow Rate [m3/s], 8.32447E-002
 Component Sizing Information, AirTerminal:SingleDuct:VAV:Reheat, CONFERENCE_0_Z1_VAVTERMINAL, Design Size Maximum Flow per Zone Floor Area during Reheat [m3/s-m2], 1.00001E-003
 Component Sizing Information, AirTerminal:SingleDuct:VAV:Reheat, CONFERENCE_0_Z1_VAVTERMINAL, Design Size Maximum Flow Fraction during Reheat [], 0.20000
 Component Sizing Information, AirTerminal:SingleDuct:VAV:Reheat, CONFERENCE_0_Z1_VAVTERMINAL, User-Specified Maximum Reheat Water Flow Rate [m3/s], 6.65958
 Component Sizing Information, Coil:Heating:Electric, CONFERENCE_0_Z1_REHEATCOIL, User-Specified Nominal Capacity [W], 1997.87320
 Component Sizing Information, AirTerminal:SingleDuct:VAV:Reheat, BREAK_ROOM_0_Z2_VAVTERMINAL, User-Specified Maximum Air Flow Rate [m3/s], 0.35103
 Component Sizing Information, AirTerminal:SingleDuct:VAV:Reheat, BREAK_ROOM_0_Z2_VAVTERMINAL, Design Size Constant Minimum Air Flow Fraction, 0.20000
 Component Sizing Information, AirTerminal:SingleDuct:VAV:Reheat, BREAK_ROOM_0_Z2_VAVTERMINAL, User-Specified Constant Minimum Air Flow Fraction, 0.20000
 Component Sizing Information, AirTerminal:SingleDuct:VAV:Reheat, BREAK_ROOM_0_Z2_VAVTERMINAL, Design Size Minimum Air Flow Rate [m3/s], 7.02053E-002
 Component Sizing Information, AirTerminal:SingleDuct:VAV:Reheat, BREAK_ROOM_0_Z2_VAVTERMINAL, Design Size Maximum Flow per Zone Floor Area during Reheat [m3/s-m2], 9.99993E-004
 Component Sizing Information, AirTerminal:SingleDuct:VAV:Reheat, BREAK_ROOM_0_Z2_VAVTERMINAL, Design Size Maximum Flow Fraction during Reheat [], 0.20000
 Component Sizing Information, AirTerminal:SingleDuct:VAV:Reheat, BREAK_ROOM_0_Z2_VAVTERMINAL, User-Specified Maximum Reheat Water Flow Rate [m3/s], 5.61642
 Component Sizing Information, Coil:Heating:Electric, BREAK_ROOM_0_Z2_REHEATCOIL, User-Specified Nominal Capacity [W], 1684.92642
 Component Sizing Information, AirTerminal:SingleDuct:VAV:Reheat, MECHANICAL_0_Z3_VAVTERMINAL, User-Specified Maximum Air Flow Rate [m3/s], 0.46945
 Component Sizing Information, AirTerminal:SingleDuct:VAV:Reheat, MECHANICAL_0_Z3_VAVTERMINAL, Design Size Constant Minimum Air Flow Fraction, 0.20000
 Component Sizing Information, AirTerminal:SingleDuct:VAV:Reheat, MECHANICAL_0_Z3_VAVTERMINAL, User-Specified Constant Minimum Air Flow Fraction, 0.20000
 Component Sizing Information, AirTerminal:SingleDuct:VAV:Reheat, MECHANICAL_0_Z3_VAVTERMINAL, Design Size Minimum Air Flow Rate [m3/s], 9.38891E-002
 Component Sizing Information, AirTerminal:SingleDuct:VAV:Reheat, MECHANICAL_0_Z3_VAVTERMINAL, Design Size Maximum Flow per Zone Floor Area during Reheat [m3/s-m2], 9.99998E-004
 Component Sizing Information, AirTerminal:SingleDuct:VAV:Reheat, MECHANICAL_0_Z3_VAVTERMINAL, Design Size Maximum Flow Fraction during Reheat [], 0.20000
 Component Sizing Information, AirTerminal:SingleDuct:VAV:Reheat, MECHANICAL_0_Z3_VAVTERMINAL, User-Specified Maximum Reheat Water Flow Rate [m3/s], 7.51113
 Component Sizing Information, Coil:Heating:Electric, MECHANICAL_0_Z3_REHEATCOIL, User-Specified Nominal Capacity [W], 2253.33895
 Component Sizing Information, AirTerminal:SingleDuct:VAV:Reheat, OFFICE_OPEN_0_Z4_VAVTERMINAL, User-Specified Maximum Air Flow Rate [m3/s], 1.46870
 Component Sizing Information, AirTerminal:SingleDuct:VAV:Reheat, OFFICE_OPEN_0_Z4_VAVTERMINAL, Design Size Constant Minimum Air Flow Fraction, 0.20000
 Component Sizing Information, AirTerminal:SingleDuct:VAV:Reheat, OFFICE_OPEN_0_Z4_VAVTERMINAL, User-Specified Constant Minimum Air Flow Fraction, 0.20000
 Component Sizing Information, AirTerminal:SingleDuct:VAV:Reheat, OFFICE_OPEN_0_Z4_VAVTERMINAL, Design Size Minimum Air Flow Rate [m3/s], 0.29374
 Component Sizing Information, AirTerminal:SingleDuct:VAV:Reheat, OFFICE_OPEN_0_Z4_VAVTERMINAL, Design Size Maximum Flow per Zone Floor Area during Reheat [m3/s-m2], 9.99997E-004
 Component Sizing Information, AirTerminal:SingleDuct:VAV:Reheat, OFFICE_OPEN_0_Z4_VAVTERMINAL, Design Size Maximum Flow Fraction during Reheat [], 0.20000
 Component Sizing Information, AirTerminal:SingleDuct:VAV:Reheat, OFFICE_OPEN_0_Z4_VAVTERMINAL, User-Specified Maximum Reheat Water Flow Rate [m3/s], 23.49917
 Component Sizing Information, Coil:Heating:Electric, OFFICE_OPEN_0_Z4_REHEATCOIL, User-Specified Nominal Capacity [W], 7049.75179
 Component Sizing Information, AirTerminal:SingleDuct:VAV:Reheat, OFFICE_PRIVATE_0_Z5_VAVTERMINAL, User-Specified Maximum Air Flow Rate [m3/s], 0.10729
 Component Sizing Information, AirTerminal:SingleDuct:VAV:Reheat, OFFICE_PRIVATE_0_Z5_VAVTERMINAL, Design Size Constant Minimum Air Flow Fraction, 0.20000
 Component Sizing Information, AirTerminal:SingleDuct:VAV:Reheat, OFFICE_PRIVATE_0_Z5_VAVTERMINAL, User-Specified Constant Minimum Air Flow Fraction, 0.20000
 Component Sizing Information, AirTerminal:SingleDuct:VAV:Reheat, OFFICE_PRIVATE_0_Z5_VAVTERMINAL, Design Size Minimum Air Flow Rate [m3/s], 2.14573E-002
 Component Sizing Information, AirTerminal:SingleDuct:VAV:Reheat, OFFICE_PRIVATE_0_Z5_VAVTERMINAL, Design Size Maximum Flow per Zone Floor Area during Reheat [m3/s-m2], 9.99990E-004
 Component Sizing Information, AirTerminal:SingleDuct:VAV:Reheat, OFFICE_PRIVATE_0_Z5_VAVTERMINAL, Design Size Maximum Flow Fraction during Reheat [], 0.20000
 Component Sizing Information, AirTerminal:SingleDuct:VAV:Reheat, OFFICE_PRIVATE_0_Z5_VAVTERMINAL, User-Specified Maximum Reheat Water Flow Rate [m3/s], 1.71658
 Component Sizing Information, Coil:Heating:Electric, OFFICE_PRIVATE_0_Z5_REHEATCOIL, User-Specified Nominal Capacity [W], 514.97533
 Component Sizing Information, AirTerminal:SingleDuct:VAV:Reheat, STORAGE_0_Z6_VAVTERMINAL, User-Specified Maximum Air Flow Rate [m3/s], 7.01470E-002
 Component Sizing Information, AirTerminal:SingleDuct:VAV:Reheat, STORAGE_0_Z6_VAVTERMINAL, Design Size Constant Minimum Air Flow Fraction, 0.20000
 Component Sizing Information, AirTerminal:SingleDuct:VAV:Reheat, STORAGE_0_Z6_VAVTERMINAL, User-Specified Constant Minimum Air Flow Fraction, 0.20000
 Component Sizing Information, AirTerminal:SingleDuct:VAV:Reheat, STORAGE_0_Z6_VAVTERMINAL, Design Size Minimum Air Flow Rate [m3/s], 1.40294E-002
 Component Sizing Information, AirTerminal:SingleDuct:VAV:Reheat, STORAGE_0_Z6_VAVTERMINAL, Design Size Maximum Flow per Zone Floor Area during Reheat [m3/s-m2], 1.00000E-003
 Component Sizing Information, AirTerminal:SingleDuct:VAV:Reheat, STORAGE_0_Z6_VAVTERMINAL, Design Size Maximum Flow Fraction during Reheat [], 0.20000
 Component Sizing Information, AirTerminal:SingleDuct:VAV:Reheat, STORAGE_0_Z6_VAVTERMINAL, User-Specified Maximum Reheat Water Flow Rate [m3/s], 1.12235
 Component Sizing Information, Coil:Heating:Electric, STORAGE_0_Z6_REHEATCOIL, User-Specified Nominal Capacity [W], 336.70559
 Component Sizing Information, AirTerminal:SingleDuct:VAV:Reheat, LOBBY_1_Z7_VAVTERMINAL, User-Specified Maximum Air Flow Rate [m3/s], 0.66249
 Component Sizing Information, AirTerminal:SingleDuct:VAV:Reheat, LOBBY_1_Z7_VAVTERMINAL, Design Size Constant Minimum Air Flow Fraction, 0.20000
 Component Sizing Information, AirTerminal:SingleDuct:VAV:Reheat, LOBBY_1_Z7_VAVTERMINAL, User-Specified Constant Minimum Air Flow Fraction, 0.20000
 Component Sizing Information, AirTerminal:SingleDuct:VAV:Reheat, LOBBY_1_Z7_VAVTERMINAL, Design Size Minimum Air Flow Rate [m3/s], 0.13250
 Component Sizing Information, AirTerminal:SingleDuct:VAV:Reheat, LOBBY_1_Z7_VAVTERMINAL, Design Size Maximum Flow per Zone Floor Area during Reheat [m3/s-m2], 1.00000E-003
 Component Sizing Information, AirTerminal:SingleDuct:VAV:Reheat, LOBBY_1_Z7_VAVTERMINAL, Design Size Maximum Flow Fraction during Reheat [], 0.20000
 Component Sizing Information, AirTerminal:SingleDuct:VAV:Reheat, LOBBY_1_Z7_VAVTERMINAL, User-Specified Maximum Reheat Water Flow Rate [m3/s], 10.59988
 Component Sizing Information, Coil:Heating:Electric, LOBBY_1_Z7_REHEATCOIL, User-Specified Nominal Capacity [W], 3179.96458
 Component Sizing Information, AirTerminal:SingleDuct:VAV:Reheat, BREAK_ROOM_1_Z8_VAVTERMINAL, User-Specified Maximum Air Flow Rate [m3/s], 0.32123
 Component Sizing Information, AirTerminal:SingleDuct:VAV:Reheat, BREAK_ROOM_1_Z8_VAVTERMINAL, Design Size Constant Minimum Air Flow Fraction, 0.20000
 Component Sizing Information, AirTerminal:SingleDuct:VAV:Reheat, BREAK_ROOM_1_Z8_VAVTERMINAL, User-Specified Constant Minimum Air Flow Fraction, 0.20000
 Component Sizing Information, AirTerminal:SingleDuct:VAV:Reheat, BREAK_ROOM_1_Z8_VAVTERMINAL, Design Size Minimum Air Flow Rate [m3/s], 6.42470E-002
 Component Sizing Information, AirTerminal:SingleDuct:VAV:Reheat, BREAK_ROOM_1_Z8_VAVTERMINAL, Design Size Maximum Flow per Zone Floor Area during Reheat [m3/s-m2], 9.99990E-004
 Component Sizing Information, AirTerminal:SingleDuct:VAV:Reheat, BREAK_ROOM_1_Z8_VAVTERMINAL, Design Size Maximum Flow Fraction during Reheat [], 0.20000
 Component Sizing Information, AirTerminal:SingleDuct:VAV:Reheat, BREAK_ROOM_1_Z8_VAVTERMINAL, User-Specified Maximum Reheat Water Flow Rate [m3/s], 5.13976
 Component Sizing Information, Coil:Heating:Electric, BREAK_ROOM_1_Z8_REHEATCOIL, User-Specified Nominal Capacity [W], 1541.92716
 Component Sizing Information, AirTerminal:SingleDuct:VAV:Reheat, OFFICE_OPEN_1_Z9_VAVTERMINAL, User-Specified Maximum Air Flow Rate [m3/s], 0.96974
 Component Sizing Information, AirTerminal:SingleDuct:VAV:Reheat, OFFICE_OPEN_1_Z9_VAVTERMINAL, Design Size Constant Minimum Air Flow Fraction, 0.20000
 Component Sizing Information, AirTerminal:SingleDuct:VAV:Reheat, OFFICE_OPEN_1_Z9_VAVTERMINAL, User-Specified Constant Minimum Air Flow Fraction, 0.20000
 Component Sizing Information, AirTerminal:SingleDuct:VAV:Reheat, OFFICE_OPEN_1_Z9_VAVTERMINAL, Design Size Minimum Air Flow Rate [m3/s], 0.19395
 Component Sizing Information, AirTerminal:SingleDuct:VAV:Reheat, OFFICE_OPEN_1_Z9_VAVTERMINAL, Design Size Maximum Flow per Zone Floor Area during Reheat [m3/s-m2], 9.99998E-004
 Component Sizing Information, AirTerminal:SingleDuct:VAV:Reheat, OFFICE_OPEN_1_Z9_VAVTERMINAL, Design Size Maximum Flow Fraction during Reheat [], 0.20000
 Component Sizing Information, AirTerminal:SingleDuct:VAV:Reheat, OFFICE_OPEN_1_Z9_VAVTERMINAL, User-Specified Maximum Reheat Water Flow Rate [m3/s], 15.51582
 Component Sizing Information, Coil:Heating:Electric, OFFICE_OPEN_1_Z9_REHEATCOIL, User-Specified Nominal Capacity [W], 4654.74546
 Component Sizing Information, AirTerminal:SingleDuct:VAV:Reheat, OFFICE_PRIVATE_1_Z10_VAVTERMINAL, User-Specified Maximum Air Flow Rate [m3/s], 0.20677
 Component Sizing Information, AirTerminal:SingleDuct:VAV:Reheat, OFFICE_PRIVATE_1_Z10_VAVTERMINAL, Design Size Constant Minimum Air Flow Fraction, 0.20000
 Component Sizing Information, AirTerminal:SingleDuct:VAV:Reheat, OFFICE_PRIVATE_1_Z10_VAVTERMINAL, User-Specified Constant Minimum Air Flow Fraction, 0.20000
 Component Sizing Information, AirTerminal:SingleDuct:VAV:Reheat, OFFICE_PRIVATE_1_Z10_VAVTERMINAL, Design Size Minimum Air Flow Rate [m3/s], 4.13538E-002
 Component Sizing Information, AirTerminal:SingleDuct:VAV:Reheat, OFFICE_PRIVATE_1_Z10_VAVTERMINAL, Design Size Maximum Flow per Zone Floor Area during Reheat [m3/s-m2], 1.00001E-003
 Component Sizing Information, AirTerminal:SingleDuct:VAV:Reheat, OFFICE_PRIVATE_1_Z10_VAVTERMINAL, Design Size Maximum Flow Fraction during Reheat [], 0.20000
 Component Sizing Information, AirTerminal:SingleDuct:VAV:Reheat, OFFICE_PRIVATE_1_Z10_VAVTERMINAL, User-Specified Maximum Reheat Water Flow Rate [m3/s], 3.30831
 Component Sizing Information, Coil:Heating:Electric, OFFICE_PRIVATE_1_Z10_REHEATCOIL, User-Specified Nominal Capacity [W], 992.49175
 Component Sizing Information, AirTerminal:SingleDuct:VAV:Reheat, STORAGE_1_Z11_VAVTERMINAL, User-Specified Maximum Air Flow Rate [m3/s], 5.12025E-002
 Component Sizing Information, AirTerminal:SingleDuct:VAV:Reheat, STORAGE_1_Z11_VAVTERMINAL, Design Size Constant Minimum Air Flow Fraction, 0.20000
 Component Sizing Information, AirTerminal:SingleDuct:VAV:Reheat, STORAGE_1_Z11_VAVTERMINAL, User-Specified Constant Minimum Air Flow Fraction, 0.20000
 Component Sizing Information, AirTerminal:SingleDuct:VAV:Reheat, STORAGE_1_Z11_VAVTERMINAL, Design Size Minimum Air Flow Rate [m3/s], 1.02405E-002
 Component Sizing Information, AirTerminal:SingleDuct:VAV:Reheat, STORAGE_1_Z11_VAVTERMINAL, Design Size Maximum Flow per Zone Floor Area during Reheat [m3/s-m2], 1.00001E-003
 Component Sizing Information, AirTerminal:SingleDuct:VAV:Reheat, STORAGE_1_Z11_VAVTERMINAL, Design Size Maximum Flow Fraction during Reheat [], 0.20000
 Component Sizing Information, AirTerminal:SingleDuct:VAV:Reheat, STORAGE_1_Z11_VAVTERMINAL, User-Specified Maximum Reheat Water Flow Rate [m3/s], 0.81924
 Component Sizing Information, Coil:Heating:Electric, STORAGE_1_Z11_REHEATCOIL, User-Specified Nominal Capacity [W], 245.77179
 Component Sizing Information, AirTerminal:SingleDuct:VAV:Reheat, LOBBY_2_Z12_VAVTERMINAL, User-Specified Maximum Air Flow Rate [m3/s], 0.54444
 Component Sizing Information, AirTerminal:SingleDuct:VAV:Reheat, LOBBY_2_Z12_VAVTERMINAL, Design Size Constant Minimum Air Flow Fraction, 0.20000
 Component Sizing Information, AirTerminal:SingleDuct:VAV:Reheat, LOBBY_2_Z12_VAVTERMINAL, User-Specified Constant Minimum Air Flow Fraction, 0.20000
 Component Sizing Information, AirTerminal:SingleDuct:VAV:Reheat, LOBBY_2_Z12_VAVTERMINAL, Design Size Minimum Air Flow Rate [m3/s], 0.10889
 Component Sizing Information, AirTerminal:SingleDuct:VAV:Reheat, LOBBY_2_Z12_VAVTERMINAL, Design Size Maximum Flow per Zone Floor Area during Reheat [m3/s-m2], 9.99989E-004
 Component Sizing Information, AirTerminal:SingleDuct:VAV:Reheat, LOBBY_2_Z12_VAVTERMINAL, Design Size Maximum Flow Fraction during Reheat [], 0.20000
 Component Sizing Information, AirTerminal:SingleDuct:VAV:Reheat, LOBBY_2_Z12_VAVTERMINAL, User-Specified Maximum Reheat Water Flow Rate [m3/s], 8.71111
 Component Sizing Information, Coil:Heating:Electric, LOBBY_2_Z12_REHEATCOIL, User-Specified Nominal Capacity [W], 2613.33154
 Component Sizing Information, AirTerminal:SingleDuct:VAV:Reheat, CONFERENCE_2_Z13_VAVTERMINAL, User-Specified Maximum Air Flow Rate [m3/s], 0.41928
 Component Sizing Information, AirTerminal:SingleDuct:VAV:Reheat, CONFERENCE_2_Z13_VAVTERMINAL, Design Size Constant Minimum Air Flow Fraction, 0.20000
 Component Sizing Information, AirTerminal:SingleDuct:VAV:Reheat, CONFERENCE_2_Z13_VAVTERMINAL, User-Specified Constant Minimum Air Flow Fraction, 0.20000
 Component Sizing Information, AirTerminal:SingleDuct:VAV:Reheat, CONFERENCE_2_Z13_VAVTERMINAL, Design Size Minimum Air Flow Rate [m3/s], 8.38556E-002
 Component Sizing Information, AirTerminal:SingleDuct:VAV:Reheat, CONFERENCE_2_Z13_VAVTERMINAL, Design Size Maximum Flow per Zone Floor Area during Reheat [m3/s-m2], 1.00001E-003
 Component Sizing Information, AirTerminal:SingleDuct:VAV:Reheat, CONFERENCE_2_Z13_VAVTERMINAL, Design Size Maximum Flow Fraction during Reheat [], 0.20000
 Component Sizing Information, AirTerminal:SingleDuct:VAV:Reheat, CONFERENCE_2_Z13_VAVTERMINAL, User-Specified Maximum Reheat Water Flow Rate [m3/s], 6.70845
 Component Sizing Information, Coil:Heating:Electric, CONFERENCE_2_Z13_REHEATCOIL, User-Specified Nominal Capacity [W], 2012.53371
 Component Sizing Information, AirTerminal:SingleDuct:VAV:Reheat, BREAK_ROOM_2_Z14_VAVTERMINAL, User-Specified Maximum Air Flow Rate [m3/s], 0.30478
 Component Sizing Information, AirTerminal:SingleDuct:VAV:Reheat, BREAK_ROOM_2_Z14_VAVTERMINAL, Design Size Constant Minimum Air Flow Fraction, 0.20000
 Component Sizing Information, AirTerminal:SingleDuct:VAV:Reheat, BREAK_ROOM_2_Z14_VAVTERMINAL, User-Specified Constant Minimum Air Flow Fraction, 0.20000
 Component Sizing Information, AirTerminal:SingleDuct:VAV:Reheat, BREAK_ROOM_2_Z14_VAVTERMINAL, Design Size Minimum Air Flow Rate [m3/s], 6.09557E-002
 Component Sizing Information, AirTerminal:SingleDuct:VAV:Reheat, BREAK_ROOM_2_Z14_VAVTERMINAL, Design Size Maximum Flow per Zone Floor Area during Reheat [m3/s-m2], 9.99996E-004
 Component Sizing Information, AirTerminal:SingleDuct:VAV:Reheat, BREAK_ROOM_2_Z14_VAVTERMINAL, Design Size Maximum Flow Fraction during Reheat [], 0.20000
 Component Sizing Information, AirTerminal:SingleDuct:VAV:Reheat, BREAK_ROOM_2_Z14_VAVTERMINAL, User-Specified Maximum Reheat Water Flow Rate [m3/s], 4.87646
 Component Sizing Information, Coil:Heating:Electric, BREAK_ROOM_2_Z14_REHEATCOIL, User-Specified Nominal Capacity [W], 1462.93749
 Component Sizing Information, AirTerminal:SingleDuct:VAV:Reheat, MECHANICAL_2_Z15_VAVTERMINAL, User-Specified Maximum Air Flow Rate [m3/s], 0.48602
 Component Sizing Information, AirTerminal:SingleDuct:VAV:Reheat, MECHANICAL_2_Z15_VAVTERMINAL, Design Size Constant Minimum Air Flow Fraction, 0.20000
 Component Sizing Information, AirTerminal:SingleDuct:VAV:Reheat, MECHANICAL_2_Z15_VAVTERMINAL, User-Specified Constant Minimum Air Flow Fraction, 0.20000
 Component Sizing Information, AirTerminal:SingleDuct:VAV:Reheat, MECHANICAL_2_Z15_VAVTERMINAL, Design Size Minimum Air Flow Rate [m3/s], 9.72038E-002
 Component Sizing Information, AirTerminal:SingleDuct:VAV:Reheat, MECHANICAL_2_Z15_VAVTERMINAL, Design Size Maximum Flow per Zone Floor Area during Reheat [m3/s-m2], 1.00000E-003
 Component Sizing Information, AirTerminal:SingleDuct:VAV:Reheat, MECHANICAL_2_Z15_VAVTERMINAL, Design Size Maximum Flow Fraction during Reheat [], 0.20000
 Component Sizing Information, AirTerminal:SingleDuct:VAV:Reheat, MECHANICAL_2_Z15_VAVTERMINAL, User-Specified Maximum Reheat Water Flow Rate [m3/s], 7.77630
 Component Sizing Information, Coil:Heating:Electric, MECHANICAL_2_Z15_REHEATCOIL, User-Specified Nominal Capacity [W], 2332.89084
 Component Sizing Information, AirTerminal:SingleDuct:VAV:Reheat, OFFICE_OPEN_2_Z16_VAVTERMINAL, User-Specified Maximum Air Flow Rate [m3/s], 2.00807
 Component Sizing Information, AirTerminal:SingleDuct:VAV:Reheat, OFFICE_OPEN_2_Z16_VAVTERMINAL, Design Size Constant Minimum Air Flow Fraction, 0.20000
 Component Sizing Information, AirTerminal:SingleDuct:VAV:Reheat, OFFICE_OPEN_2_Z16_VAVTERMINAL, User-Specified Constant Minimum Air Flow Fraction, 0.20000
 Component Sizing Information, AirTerminal:SingleDuct:VAV:Reheat, OFFICE_OPEN_2_Z16_VAVTERMINAL, Design Size Minimum Air Flow Rate [m3/s], 0.40161
 Component Sizing Information, AirTerminal:SingleDuct:VAV:Reheat, OFFICE_OPEN_2_Z16_VAVTERMINAL, Design Size Maximum Flow per Zone Floor Area during Reheat [m3/s-m2], 1.00000E-003
 Component Sizing Information, AirTerminal:SingleDuct:VAV:Reheat, OFFICE_OPEN_2_Z16_VAVTERMINAL, Design Size Maximum Flow Fraction during Reheat [], 0.20000
 Component Sizing Information, AirTerminal:SingleDuct:VAV:Reheat, OFFICE_OPEN_2_Z16_VAVTERMINAL, User-Specified Maximum Reheat Water Flow Rate [m3/s], 32.12914
 Component Sizing Information, Coil:Heating:Electric, OFFICE_OPEN_2_Z16_REHEATCOIL, User-Specified Nominal Capacity [W], 9638.74231
 Component Sizing Information, AirTerminal:SingleDuct:VAV:Reheat, OFFICE_PRIVATE_2_Z17_VAVTERMINAL, User-Specified Maximum Air Flow Rate [m3/s], 0.12006
 Component Sizing Information, AirTerminal:SingleDuct:VAV:Reheat, OFFICE_PRIVATE_2_Z17_VAVTERMINAL, Design Size Constant Minimum Air Flow Fraction, 0.20000
 Component Sizing Information, AirTerminal:SingleDuct:VAV:Reheat, OFFICE_PRIVATE_2_Z17_VAVTERMINAL, User-Specified Constant Minimum Air Flow Fraction, 0.20000
 Component Sizing Information, AirTerminal:SingleDuct:VAV:Reheat, OFFICE_PRIVATE_2_Z17_VAVTERMINAL, Design Size Minimum Air Flow Rate [m3/s], 2.40121E-002
 Component Sizing Information, AirTerminal:SingleDuct:VAV:Reheat, OFFICE_PRIVATE_2_Z17_VAVTERMINAL, Design Size Maximum Flow per Zone Floor Area during Reheat [m3/s-m2], 1.00000E-003
 Component Sizing Information, AirTerminal:SingleDuct:VAV:Reheat, OFFICE_PRIVATE_2_Z17_VAVTERMINAL, Design Size Maximum Flow Fraction during Reheat [], 0.20000
 Component Sizing Information, AirTerminal:SingleDuct:VAV:Reheat, OFFICE_PRIVATE_2_Z17_VAVTERMINAL, User-Specified Maximum Reheat Water Flow Rate [m3/s], 1.92097
 Component Sizing Information, Coil:Heating:Electric, OFFICE_PRIVATE_2_Z17_REHEATCOIL, User-Specified Nominal Capacity [W], 576.29031
 Component Sizing Information, AirTerminal:SingleDuct:VAV:Reheat, STORAGE_2_Z18_VAVTERMINAL, User-Specified Maximum Air Flow Rate [m3/s], 0.12677
 Component Sizing Information, AirTerminal:SingleDuct:VAV:Reheat, STORAGE_2_Z18_VAVTERMINAL, Design Size Constant Minimum Air Flow Fraction, 0.20000
 Component Sizing Information, AirTerminal:SingleDuct:VAV:Reheat, STORAGE_2_Z18_VAVTERMINAL, User-Specified Constant Minimum Air Flow Fraction, 0.20000
 Component Sizing Information, AirTerminal:SingleDuct:VAV:Reheat, STORAGE_2_Z18_VAVTERMINAL, Design Size Minimum Air Flow Rate [m3/s], 2.53547E-002
 Component Sizing Information, AirTerminal:SingleDuct:VAV:Reheat, STORAGE_2_Z18_VAVTERMINAL, Design Size Maximum Flow per Zone Floor Area during Reheat [m3/s-m2], 1.00000E-003
 Component Sizing Information, AirTerminal:SingleDuct:VAV:Reheat, STORAGE_2_Z18_VAVTERMINAL, Design Size Maximum Flow Fraction during Reheat [], 0.20000
 Component Sizing Information, AirTerminal:SingleDuct:VAV:Reheat, STORAGE_2_Z18_VAVTERMINAL, User-Specified Maximum Reheat Water Flow Rate [m3/s], 2.02837
 Component Sizing Information, Coil:Heating:Electric, STORAGE_2_Z18_REHEATCOIL, User-Specified Nominal Capacity [W], 608.51204
 Component Sizing Information, AirTerminal:SingleDuct:VAV:Reheat, LOBBY_3_Z19_VAVTERMINAL, User-Specified Maximum Air Flow Rate [m3/s], 0.74653
 Component Sizing Information, AirTerminal:SingleDuct:VAV:Reheat, LOBBY_3_Z19_VAVTERMINAL, Design Size Constant Minimum Air Flow Fraction, 0.20000
 Component Sizing Information, AirTerminal:SingleDuct:VAV:Reheat, LOBBY_3_Z19_VAVTERMINAL, User-Specified Constant Minimum Air Flow Fraction, 0.20000
 Component Sizing Information, AirTerminal:SingleDuct:VAV:Reheat, LOBBY_3_Z19_VAVTERMINAL, Design Size Minimum Air Flow Rate [m3/s], 0.14931
 Component Sizing Information, AirTerminal:SingleDuct:VAV:Reheat, LOBBY_3_Z19_VAVTERMINAL, Design Size Maximum Flow per Zone Floor Area during Reheat [m3/s-m2], 1.00000E-003
 Component Sizing Information, AirTerminal:SingleDuct:VAV:Reheat, LOBBY_3_Z19_VAVTERMINAL, Design Size Maximum Flow Fraction during Reheat [], 0.20000
 Component Sizing Information, AirTerminal:SingleDuct:VAV:Reheat, LOBBY_3_Z19_VAVTERMINAL, User-Specified Maximum Reheat Water Flow Rate [m3/s], 11.94454
 Component Sizing Information, Coil:Heating:Electric, LOBBY_3_Z19_REHEATCOIL, User-Specified Nominal Capacity [W], 3583.36252
 Component Sizing Information, AirTerminal:SingleDuct:VAV:Reheat, CONFERENCE_3_Z20_VAVTERMINAL, User-Specified Maximum Air Flow Rate [m3/s], 0.46383
 Component Sizing Information, AirTerminal:SingleDuct:VAV:Reheat, CONFERENCE_3_Z20_VAVTERMINAL, Design Size Constant Minimum Air Flow Fraction, 0.20000
 Component Sizing Information, AirTerminal:SingleDuct:VAV:Reheat, CONFERENCE_3_Z20_VAVTERMINAL, User-Specified Constant Minimum Air Flow Fraction, 0.20000
 Component Sizing Information, AirTerminal:SingleDuct:VAV:Reheat, CONFERENCE_3_Z20_VAVTERMINAL, Design Size Minimum Air Flow Rate [m3/s], 9.27651E-002
 Component Sizing Information, AirTerminal:SingleDuct:VAV:Reheat, CONFERENCE_3_Z20_VAVTERMINAL, Design Size Maximum Flow per Zone Floor Area during Reheat [m3/s-m2], 1.00001E-003
 Component Sizing Information, AirTerminal:SingleDuct:VAV:Reheat, CONFERENCE_3_Z20_VAVTERMINAL, Design Size Maximum Flow Fraction during Reheat [], 0.20000
 Component Sizing Information, AirTerminal:SingleDuct:VAV:Reheat, CONFERENCE_3_Z20_VAVTERMINAL, User-Specified Maximum Reheat Water Flow Rate [m3/s], 7.42121
 Component Sizing Information, Coil:Heating:Electric, CONFERENCE_3_Z20_REHEATCOIL, User-Specified Nominal Capacity [W], 2226.36210
 Component Sizing Information, AirTerminal:SingleDuct:VAV:Reheat, BREAK_ROOM_3_Z21_VAVTERMINAL, User-Specified Maximum Air Flow Rate [m3/s], 0.29744
 Component Sizing Information, AirTerminal:SingleDuct:VAV:Reheat, BREAK_ROOM_3_Z21_VAVTERMINAL, Design Size Constant Minimum Air Flow Fraction, 0.20000
 Component Sizing Information, AirTerminal:SingleDuct:VAV:Reheat, BREAK_ROOM_3_Z21_VAVTERMINAL, User-Specified Constant Minimum Air Flow Fraction, 0.20000
 Component Sizing Information, AirTerminal:SingleDuct:VAV:Reheat, BREAK_ROOM_3_Z21_VAVTERMINAL, Design Size Minimum Air Flow Rate [m3/s], 5.94880E-002
 Component Sizing Information, AirTerminal:SingleDuct:VAV:Reheat, BREAK_ROOM_3_Z21_VAVTERMINAL, Design Size Maximum Flow per Zone Floor Area during Reheat [m3/s-m2], 1.00001E-003
 Component Sizing Information, AirTerminal:SingleDuct:VAV:Reheat, BREAK_ROOM_3_Z21_VAVTERMINAL, Design Size Maximum Flow Fraction during Reheat [], 0.20000
 Component Sizing Information, AirTerminal:SingleDuct:VAV:Reheat, BREAK_ROOM_3_Z21_VAVTERMINAL, User-Specified Maximum Reheat Water Flow Rate [m3/s], 4.75904
 Component Sizing Information, Coil:Heating:Electric, BREAK_ROOM_3_Z21_REHEATCOIL, User-Specified Nominal Capacity [W], 1427.71095
 Component Sizing Information, AirTerminal:SingleDuct:VAV:Reheat, MECHANICAL_3_Z22_VAVTERMINAL, User-Specified Maximum Air Flow Rate [m3/s], 0.44770
 Component Sizing Information, AirTerminal:SingleDuct:VAV:Reheat, MECHANICAL_3_Z22_VAVTERMINAL, Design Size Constant Minimum Air Flow Fraction, 0.20000
 Component Sizing Information, AirTerminal:SingleDuct:VAV:Reheat, MECHANICAL_3_Z22_VAVTERMINAL, User-Specified Constant Minimum Air Flow Fraction, 0.20000
 Component Sizing Information, AirTerminal:SingleDuct:VAV:Reheat, MECHANICAL_3_Z22_VAVTERMINAL, Design Size Minimum Air Flow Rate [m3/s], 8.95400E-002
 Component Sizing Information, AirTerminal:SingleDuct:VAV:Reheat, MECHANICAL_3_Z22_VAVTERMINAL, Design Size Maximum Flow per Zone Floor Area during Reheat [m3/s-m2], 1.00000E-003
 Component Sizing Information, AirTerminal:SingleDuct:VAV:Reheat, MECHANICAL_3_Z22_VAVTERMINAL, Design Size Maximum Flow Fraction during Reheat [], 0.20000
 Component Sizing Information, AirTerminal:SingleDuct:VAV:Reheat, MECHANICAL_3_Z22_VAVTERMINAL, User-Specified Maximum Reheat Water Flow Rate [m3/s], 7.16320
 Component Sizing Information, Coil:Heating:Electric, MECHANICAL_3_Z22_REHEATCOIL, User-Specified Nominal Capacity [W], 2148.95917
 Component Sizing Information, AirTerminal:SingleDuct:VAV:Reheat, OFFICE_OPEN_3_Z23_VAVTERMINAL, User-Specified Maximum Air Flow Rate [m3/s], 0.62773
 Component Sizing Information, AirTerminal:SingleDuct:VAV:Reheat, OFFICE_OPEN_3_Z23_VAVTERMINAL, Design Size Constant Minimum Air Flow Fraction, 0.20000
 Component Sizing Information, AirTerminal:SingleDuct:VAV:Reheat, OFFICE_OPEN_3_Z23_VAVTERMINAL, User-Specified Constant Minimum Air Flow Fraction, 0.20000
 Component Sizing Information, AirTerminal:SingleDuct:VAV:Reheat, OFFICE_OPEN_3_Z23_VAVTERMINAL, Design Size Minimum Air Flow Rate [m3/s], 0.12555
 Component Sizing Information, AirTerminal:SingleDuct:VAV:Reheat, OFFICE_OPEN_3_Z23_VAVTERMINAL, Design Size Maximum Flow per Zone Floor Area during Reheat [m3/s-m2], 1.00001E-003
 Component Sizing Information, AirTerminal:SingleDuct:VAV:Reheat, OFFICE_OPEN_3_Z23_VAVTERMINAL, Design Size Maximum Flow Fraction during Reheat [], 0.20000
 Component Sizing Information, AirTerminal:SingleDuct:VAV:Reheat, OFFICE_OPEN_3_Z23_VAVTERMINAL, User-Specified Maximum Reheat Water Flow Rate [m3/s], 10.04362
 Component Sizing Information, Coil:Heating:Electric, OFFICE_OPEN_3_Z23_REHEATCOIL, User-Specified Nominal Capacity [W], 3013.08459
 Component Sizing Information, AirTerminal:SingleDuct:VAV:Reheat, OFFICE_PRIVATE_3_Z24_VAVTERMINAL, User-Specified Maximum Air Flow Rate [m3/s], 0.22473
 Component Sizing Information, AirTerminal:SingleDuct:VAV:Reheat, OFFICE_PRIVATE_3_Z24_VAVTERMINAL, Design Size Constant Minimum Air Flow Fraction, 0.20000
 Component Sizing Information, AirTerminal:SingleDuct:VAV:Reheat, OFFICE_PRIVATE_3_Z24_VAVTERMINAL, User-Specified Constant Minimum Air Flow Fraction, 0.20000
 Component Sizing Information, AirTerminal:SingleDuct:VAV:Reheat, OFFICE_PRIVATE_3_Z24_VAVTERMINAL, Design Size Minimum Air Flow Rate [m3/s], 4.49455E-002
 Component Sizing Information, AirTerminal:SingleDuct:VAV:Reheat, OFFICE_PRIVATE_3_Z24_VAVTERMINAL, Design Size Maximum Flow per Zone Floor Area during Reheat [m3/s-m2], 9.99994E-004
 Component Sizing Information, AirTerminal:SingleDuct:VAV:Reheat, OFFICE_PRIVATE_3_Z24_VAVTERMINAL, Design Size Maximum Flow Fraction during Reheat [], 0.20000
 Component Sizing Information, AirTerminal:SingleDuct:VAV:Reheat, OFFICE_PRIVATE_3_Z24_VAVTERMINAL, User-Specified Maximum Reheat Water Flow Rate [m3/s], 3.59564
 Component Sizing Information, Coil:Heating:Electric, OFFICE_PRIVATE_3_Z24_REHEATCOIL, User-Specified Nominal Capacity [W], 1078.69302
 Component Sizing Information, AirTerminal:SingleDuct:VAV:Reheat, LOBBY_4_Z25_VAVTERMINAL, User-Specified Maximum Air Flow Rate [m3/s], 0.66545
[...]
 Sky Daylight Factors,Clear Turbid Sky,01/01,BREAK_ROOM_3_DAYLIGHT,BREAK_ROOM_3,BREAK_ROOM_3_WINDOW_4,BREAK_ROOM_3_REFERENCEPOINT1,0.0000
 Sky Daylight Factors,Intermediate Sky,01/01,BREAK_ROOM_3_DAYLIGHT,BREAK_ROOM_3,BREAK_ROOM_3_WINDOW_4,BREAK_ROOM_3_REFERENCEPOINT1,0.0000
 Sky Daylight Factors,Overcast Sky,01/01,BREAK_ROOM_3_DAYLIGHT,BREAK_ROOM_3,BREAK_ROOM_3_WINDOW_4,BREAK_ROOM_3_REFERENCEPOINT1,0.0000
 Sky Daylight Factors,Clear Sky,01/01,OFFICE_OPEN_3_DAYLIGHT,OFFICE_OPEN_3,OFFICE_OPEN_3_WINDOW_1,OFFICE_OPEN_3_REFERENCEPOINT1,5.4286E-003
 Sky Daylight Factors,Clear Turbid Sky,01/01,OFFICE_OPEN_3_DAYLIGHT,OFFICE_OPEN_3,OFFICE_OPEN_3_WINDOW_1,OFFICE_OPEN_3_REFERENCEPOINT1,6.1354E-003
 Sky Daylight Factors,Intermediate Sky,01/01,OFFICE_OPEN_3_DAYLIGHT,OFFICE_OPEN_3,OFFICE_OPEN_3_WINDOW_1,OFFICE_OPEN_3_REFERENCEPOINT1,3.6994E-003
 Sky Daylight Factors,Overcast Sky,01/01,OFFICE_OPEN_3_DAYLIGHT,OFFICE_OPEN_3,OFFICE_OPEN_3_WINDOW_1,OFFICE_OPEN_3_REFERENCEPOINT1,1.7826E-003
 Sky Daylight Factors,Clear Sky,01/01,OFFICE_OPEN_3_DAYLIGHT,OFFICE_OPEN_3,OFFICE_OPEN_3_WINDOW_2,OFFICE_OPEN_3_REFERENCEPOINT1,1.7230E-003
 Sky Daylight Factors,Clear Turbid Sky,01/01,OFFICE_OPEN_3_DAYLIGHT,OFFICE_OPEN_3,OFFICE_OPEN_3_WINDOW_2,OFFICE_OPEN_3_REFERENCEPOINT1,1.4389E-003
 Sky Daylight Factors,Intermediate Sky,01/01,OFFICE_OPEN_3_DAYLIGHT,OFFICE_OPEN_3,OFFICE_OPEN_3_WINDOW_2,OFFICE_OPEN_3_REFERENCEPOINT1,1.6086E-003
 Sky Daylight Factors,Overcast Sky,01/01,OFFICE_OPEN_3_DAYLIGHT,OFFICE_OPEN_3,OFFICE_OPEN_3_WINDOW_2,OFFICE_OPEN_3_REFERENCEPOINT1,1.9130E-003
 Sky Daylight Factors,Clear Sky,01/01,OFFICE_OPEN_3_DAYLIGHT,OFFICE_OPEN_3,OFFICE_OPEN_3_WINDOW_3,OFFICE_OPEN_3_REFERENCEPOINT1,2.7185E-003
 Sky Daylight Factors,Clear Turbid Sky,01/01,OFFICE_OPEN_3_DAYLIGHT,OFFICE_OPEN_3,OFFICE_OPEN_3_WINDOW_3,OFFICE_OPEN_3_REFERENCEPOINT1,2.2955E-003
 Sky Daylight Factors,Intermediate Sky,01/01,OFFICE_OPEN_3_DAYLIGHT,OFFICE_OPEN_3,OFFICE_OPEN_3_WINDOW_3,OFFICE_OPEN_3_REFERENCEPOINT1,2.1397E-003
 Sky Daylight Factors,Overcast Sky,01/01,OFFICE_OPEN_3_DAYLIGHT,OFFICE_OPEN_3,OFFICE_OPEN_3_WINDOW_3,OFFICE_OPEN_3_REFERENCEPOINT1,2.8613E-003
 Sky Daylight Factors,Clear Sky,01/01,OFFICE_OPEN_3_DAYLIGHT,OFFICE_OPEN_3,OFFICE_OPEN_3_WINDOW_4,OFFICE_OPEN_3_REFERENCEPOINT1,3.0586E-003
 Sky Daylight Factors,Clear Turbid Sky,01/01,OFFICE_OPEN_3_DAYLIGHT,OFFICE_OPEN_3,OFFICE_OPEN_3_WINDOW_4,OFFICE_OPEN_3_REFERENCEPOINT1,2.9776E-003
 Sky Daylight Factors,Intermediate Sky,01/01,OFFICE_OPEN_3_DAYLIGHT,OFFICE_OPEN_3,OFFICE_OPEN_3_WINDOW_4,OFFICE_OPEN_3_REFERENCEPOINT1,3.0248E-003
 Sky Daylight Factors,Overcast Sky,01/01,OFFICE_OPEN_3_DAYLIGHT,OFFICE_OPEN_3,OFFICE_OPEN_3_WINDOW_4,OFFICE_OPEN_3_REFERENCEPOINT1,2.2339E-003
 Sky Daylight Factors,Clear Sky,01/01,OFFICE_PRIVATE_3_DAYLIGHT,OFFICE_PRIVATE_3,OFFICE_PRIVATE_3_WINDOW_1,OFFICE_PRIVATE_3_REFERENCEPOINT1,5.9783E-003
 Sky Daylight Factors,Clear Turbid Sky,01/01,OFFICE_PRIVATE_3_DAYLIGHT,OFFICE_PRIVATE_3,OFFICE_PRIVATE_3_WINDOW_1,OFFICE_PRIVATE_3_REFERENCEPOINT1,6.7578E-003
 Sky Daylight Factors,Intermediate Sky,01/01,OFFICE_PRIVATE_3_DAYLIGHT,OFFICE_PRIVATE_3,OFFICE_PRIVATE_3_WINDOW_1,OFFICE_PRIVATE_3_REFERENCEPOINT1,4.0656E-003
 Sky Daylight Factors,Overcast Sky,01/01,OFFICE_PRIVATE_3_DAYLIGHT,OFFICE_PRIVATE_3,OFFICE_PRIVATE_3_WINDOW_1,OFFICE_PRIVATE_3_REFERENCEPOINT1,2.0767E-003
 Sky Daylight Factors,Clear Sky,01/01,OFFICE_PRIVATE_3_DAYLIGHT,OFFICE_PRIVATE_3,OFFICE_PRIVATE_3_WINDOW_2,OFFICE_PRIVATE_3_REFERENCEPOINT1,5.2609E-003
 Sky Daylight Factors,Clear Turbid Sky,01/01,OFFICE_PRIVATE_3_DAYLIGHT,OFFICE_PRIVATE_3,OFFICE_PRIVATE_3_WINDOW_2,OFFICE_PRIVATE_3_REFERENCEPOINT1,4.9417E-003
 Sky Daylight Factors,Intermediate Sky,01/01,OFFICE_PRIVATE_3_DAYLIGHT,OFFICE_PRIVATE_3,OFFICE_PRIVATE_3_WINDOW_2,OFFICE_PRIVATE_3_REFERENCEPOINT1,5.1296E-003
 Sky Daylight Factors,Overcast Sky,01/01,OFFICE_PRIVATE_3_DAYLIGHT,OFFICE_PRIVATE_3,OFFICE_PRIVATE_3_WINDOW_2,OFFICE_PRIVATE_3_REFERENCEPOINT1,4.1996E-003
 Sky Daylight Factors,Clear Sky,01/01,OFFICE_PRIVATE_3_DAYLIGHT,OFFICE_PRIVATE_3,OFFICE_PRIVATE_3_WINDOW_3,OFFICE_PRIVATE_3_REFERENCEPOINT1,1.0303E-003
 Sky Daylight Factors,Clear Turbid Sky,01/01,OFFICE_PRIVATE_3_DAYLIGHT,OFFICE_PRIVATE_3,OFFICE_PRIVATE_3_WINDOW_3,OFFICE_PRIVATE_3_REFERENCEPOINT1,8.2568E-004
 Sky Daylight Factors,Intermediate Sky,01/01,OFFICE_PRIVATE_3_DAYLIGHT,OFFICE_PRIVATE_3,OFFICE_PRIVATE_3_WINDOW_3,OFFICE_PRIVATE_3_REFERENCEPOINT1,1.1843E-003
 Sky Daylight Factors,Overcast Sky,01/01,OFFICE_PRIVATE_3_DAYLIGHT,OFFICE_PRIVATE_3,OFFICE_PRIVATE_3_WINDOW_3,OFFICE_PRIVATE_3_REFERENCEPOINT1,2.0627E-003
 Sky Daylight Factors,Clear Sky,01/01,OFFICE_PRIVATE_3_DAYLIGHT,OFFICE_PRIVATE_3,OFFICE_PRIVATE_3_WINDOW_4,OFFICE_PRIVATE_3_REFERENCEPOINT1,1.6452E-003
 Sky Daylight Factors,Clear Turbid Sky,01/01,OFFICE_PRIVATE_3_DAYLIGHT,OFFICE_PRIVATE_3,OFFICE_PRIVATE_3_WINDOW_4,OFFICE_PRIVATE_3_REFERENCEPOINT1,1.5536E-003
 Sky Daylight Factors,Intermediate Sky,01/01,OFFICE_PRIVATE_3_DAYLIGHT,OFFICE_PRIVATE_3,OFFICE_PRIVATE_3_WINDOW_4,OFFICE_PRIVATE_3_REFERENCEPOINT1,1.9700E-003
 Sky Daylight Factors,Overcast Sky,01/01,OFFICE_PRIVATE_3_DAYLIGHT,OFFICE_PRIVATE_3,OFFICE_PRIVATE_3_WINDOW_4,OFFICE_PRIVATE_3_REFERENCEPOINT1,2.0197E-003
 Sky Daylight Factors,Clear Sky,01/01,LOBBY_4_DAYLIGHT,LOBBY_4,LOBBY_4_WINDOW_1,LOBBY_4_REFERENCEPOINT1,0.0000
 Sky Daylight Factors,Clear Turbid Sky,01/01,LOBBY_4_DAYLIGHT,LOBBY_4,LOBBY_4_WINDOW_1,LOBBY_4_REFERENCEPOINT1,0.0000
 Sky Daylight Factors,Intermediate Sky,01/01,LOBBY_4_DAYLIGHT,LOBBY_4,LOBBY_4_WINDOW_1,LOBBY_4_REFERENCEPOINT1,0.0000
 Sky Daylight Factors,Overcast Sky,01/01,LOBBY_4_DAYLIGHT,LOBBY_4,LOBBY_4_WINDOW_1,LOBBY_4_REFERENCEPOINT1,0.0000
 Sky Daylight Factors,Clear Sky,01/01,LOBBY_4_DAYLIGHT,LOBBY_4,LOBBY_4_WINDOW_2,LOBBY_4_REFERENCEPOINT1,4.7732E-003
 Sky Daylight Factors,Clear Turbid Sky,01/01,LOBBY_4_DAYLIGHT,LOBBY_4,LOBBY_4_WINDOW_2,LOBBY_4_REFERENCEPOINT1,4.4677E-003
 Sky Daylight Factors,Intermediate Sky,01/01,LOBBY_4_DAYLIGHT,LOBBY_4,LOBBY_4_WINDOW_2,LOBBY_4_REFERENCEPOINT1,4.5119E-003
 Sky Daylight Factors,Overcast Sky,01/01,LOBBY_4_DAYLIGHT,LOBBY_4,LOBBY_4_WINDOW_2,LOBBY_4_REFERENCEPOINT1,3.8999E-003
 Sky Daylight Factors,Clear Sky,01/01,LOBBY_4_DAYLIGHT,LOBBY_4,LOBBY_4_WINDOW_3,LOBBY_4_REFERENCEPOINT1,3.8800E-003
 Sky Daylight Factors,Clear Turbid Sky,01/01,LOBBY_4_DAYLIGHT,LOBBY_4,LOBBY_4_WINDOW_3,LOBBY_4_REFERENCEPOINT1,3.1022E-003
 Sky Daylight Factors,Intermediate Sky,01/01,LOBBY_4_DAYLIGHT,LOBBY_4,LOBBY_4_WINDOW_3,LOBBY_4_REFERENCEPOINT1,2.7519E-003
 Sky Daylight Factors,Overcast Sky,01/01,LOBBY_4_DAYLIGHT,LOBBY_4,LOBBY_4_WINDOW_3,LOBBY_4_REFERENCEPOINT1,3.9188E-003
 Sky Daylight Factors,Clear Sky,01/01,LOBBY_4_DAYLIGHT,LOBBY_4,LOBBY_4_WINDOW_4,LOBBY_4_REFERENCEPOINT1,4.0977E-003
 Sky Daylight Factors,Clear Turbid Sky,01/01,LOBBY_4_DAYLIGHT,LOBBY_4,LOBBY_4_WINDOW_4,LOBBY_4_REFERENCEPOINT1,3.8017E-003
 Sky Daylight Factors,Intermediate Sky,01/01,LOBBY_4_DAYLIGHT,LOBBY_4,LOBBY_4_WINDOW_4,LOBBY_4_REFERENCEPOINT1,3.8206E-003
 Sky Daylight Factors,Overcast Sky,01/01,LOBBY_4_DAYLIGHT,LOBBY_4,LOBBY_4_WINDOW_4,LOBBY_4_REFERENCEPOINT1,3.1844E-003
 Sky Daylight Factors,Clear Sky,01/01,CONFERENCE_4_DAYLIGHT,CONFERENCE_4,CONFERENCE_4_WINDOW_1,CONFERENCE_4_REFERENCEPOINT1,7.0408E-003
 Sky Daylight Factors,Clear Turbid Sky,01/01,CONFERENCE_4_DAYLIGHT,CONFERENCE_4,CONFERENCE_4_WINDOW_1,CONFERENCE_4_REFERENCEPOINT1,7.8421E-003
 Sky Daylight Factors,Intermediate Sky,01/01,CONFERENCE_4_DAYLIGHT,CONFERENCE_4,CONFERENCE_4_WINDOW_1,CONFERENCE_4_REFERENCEPOINT1,4.9965E-003
 Sky Daylight Factors,Overcast Sky,01/01,CONFERENCE_4_DAYLIGHT,CONFERENCE_4,CONFERENCE_4_WINDOW_1,CONFERENCE_4_REFERENCEPOINT1,2.5948E-003
 Sky Daylight Factors,Clear Sky,01/01,CONFERENCE_4_DAYLIGHT,CONFERENCE_4,CONFERENCE_4_WINDOW_2,CONFERENCE_4_REFERENCEPOINT1,5.4307E-003
 Sky Daylight Factors,Clear Turbid Sky,01/01,CONFERENCE_4_DAYLIGHT,CONFERENCE_4,CONFERENCE_4_WINDOW_2,CONFERENCE_4_REFERENCEPOINT1,5.0370E-003
 Sky Daylight Factors,Intermediate Sky,01/01,CONFERENCE_4_DAYLIGHT,CONFERENCE_4,CONFERENCE_4_WINDOW_2,CONFERENCE_4_REFERENCEPOINT1,5.0789E-003
 Sky Daylight Factors,Overcast Sky,01/01,CONFERENCE_4_DAYLIGHT,CONFERENCE_4,CONFERENCE_4_WINDOW_2,CONFERENCE_4_REFERENCEPOINT1,4.2779E-003
 Sky Daylight Factors,Clear Sky,01/01,CONFERENCE_4_DAYLIGHT,CONFERENCE_4,CONFERENCE_4_WINDOW_3,CONFERENCE_4_REFERENCEPOINT1,4.1086E-003
 Sky Daylight Factors,Clear Turbid Sky,01/01,CONFERENCE_4_DAYLIGHT,CONFERENCE_4,CONFERENCE_4_WINDOW_3,CONFERENCE_4_REFERENCEPOINT1,3.1715E-003
 Sky Daylight Factors,Intermediate Sky,01/01,CONFERENCE_4_DAYLIGHT,CONFERENCE_4,CONFERENCE_4_WINDOW_3,CONFERENCE_4_REFERENCEPOINT1,2.7495E-003
 Sky Daylight Factors,Overcast Sky,01/01,CONFERENCE_4_DAYLIGHT,CONFERENCE_4,CONFERENCE_4_WINDOW_3,CONFERENCE_4_REFERENCEPOINT1,4.1553E-003
 Sky Daylight Factors,Clear Sky,01/01,CONFERENCE_4_DAYLIGHT,CONFERENCE_4,CONFERENCE_4_WINDOW_4,CONFERENCE_4_REFERENCEPOINT1,6.2562E-003
 Sky Daylight Factors,Clear Turbid Sky,01/01,CONFERENCE_4_DAYLIGHT,CONFERENCE_4,CONFERENCE_4_WINDOW_4,CONFERENCE_4_REFERENCEPOINT1,5.8714E-003
 Sky Daylight Factors,Intermediate Sky,01/01,CONFERENCE_4_DAYLIGHT,CONFERENCE_4,CONFERENCE_4_WINDOW_4,CONFERENCE_4_REFERENCEPOINT1,5.8959E-003
 Sky Daylight Factors,Overcast Sky,01/01,CONFERENCE_4_DAYLIGHT,CONFERENCE_4,CONFERENCE_4_WINDOW_4,CONFERENCE_4_REFERENCEPOINT1,5.0690E-003
 Sky Daylight Factors,Clear Sky,01/01,OFFICE_OPEN_4_DAYLIGHT,OFFICE_OPEN_4,OFFICE_OPEN_4_WINDOW_1,OFFICE_OPEN_4_REFERENCEPOINT1,4.4436E-003
 Sky Daylight Factors,Clear Turbid Sky,01/01,OFFICE_OPEN_4_DAYLIGHT,OFFICE_OPEN_4,OFFICE_OPEN_4_WINDOW_1,OFFICE_OPEN_4_REFERENCEPOINT1,4.9796E-003
 Sky Daylight Factors,Intermediate Sky,01/01,OFFICE_OPEN_4_DAYLIGHT,OFFICE_OPEN_4,OFFICE_OPEN_4_WINDOW_1,OFFICE_OPEN_4_REFERENCEPOINT1,3.0768E-003
 Sky Daylight Factors,Overcast Sky,01/01,OFFICE_OPEN_4_DAYLIGHT,OFFICE_OPEN_4,OFFICE_OPEN_4_WINDOW_1,OFFICE_OPEN_4_REFERENCEPOINT1,1.4716E-003
 Sky Daylight Factors,Clear Sky,01/01,OFFICE_OPEN_4_DAYLIGHT,OFFICE_OPEN_4,OFFICE_OPEN_4_WINDOW_2,OFFICE_OPEN_4_REFERENCEPOINT1,3.9369E-003
 Sky Daylight Factors,Clear Turbid Sky,01/01,OFFICE_OPEN_4_DAYLIGHT,OFFICE_OPEN_4,OFFICE_OPEN_4_WINDOW_2,OFFICE_OPEN_4_REFERENCEPOINT1,3.6775E-003
 Sky Daylight Factors,Intermediate Sky,01/01,OFFICE_OPEN_4_DAYLIGHT,OFFICE_OPEN_4,OFFICE_OPEN_4_WINDOW_2,OFFICE_OPEN_4_REFERENCEPOINT1,3.7052E-003
 Sky Daylight Factors,Overcast Sky,01/01,OFFICE_OPEN_4_DAYLIGHT,OFFICE_OPEN_4,OFFICE_OPEN_4_WINDOW_2,OFFICE_OPEN_4_REFERENCEPOINT1,3.1777E-003
 Sky Daylight Factors,Clear Sky,01/01,OFFICE_OPEN_4_DAYLIGHT,OFFICE_OPEN_4,OFFICE_OPEN_4_WINDOW_3,OFFICE_OPEN_4_REFERENCEPOINT1,3.3505E-003
 Sky Daylight Factors,Clear Turbid Sky,01/01,OFFICE_OPEN_4_DAYLIGHT,OFFICE_OPEN_4,OFFICE_OPEN_4_WINDOW_3,OFFICE_OPEN_4_REFERENCEPOINT1,2.7262E-003
 Sky Daylight Factors,Intermediate Sky,01/01,OFFICE_OPEN_4_DAYLIGHT,OFFICE_OPEN_4,OFFICE_OPEN_4_WINDOW_3,OFFICE_OPEN_4_REFERENCEPOINT1,2.4449E-003
 Sky Daylight Factors,Overcast Sky,01/01,OFFICE_OPEN_4_DAYLIGHT,OFFICE_OPEN_4,OFFICE_OPEN_4_WINDOW_3,OFFICE_OPEN_4_REFERENCEPOINT1,3.3817E-003
 Sky Daylight Factors,Clear Sky,01/01,OFFICE_OPEN_4_DAYLIGHT,OFFICE_OPEN_4,OFFICE_OPEN_4_WINDOW_4,OFFICE_OPEN_4_REFERENCEPOINT1,3.3671E-003
 Sky Daylight Factors,Clear Turbid Sky,01/01,OFFICE_OPEN_4_DAYLIGHT,OFFICE_OPEN_4,OFFICE_OPEN_4_WINDOW_4,OFFICE_OPEN_4_REFERENCEPOINT1,3.0838E-003
 Sky Daylight Factors,Intermediate Sky,01/01,OFFICE_OPEN_4_DAYLIGHT,OFFICE_OPEN_4,OFFICE_OPEN_4_WINDOW_4,OFFICE_OPEN_4_REFERENCEPOINT1,3.2182E-003
 Sky Daylight Factors,Overcast Sky,01/01,OFFICE_OPEN_4_DAYLIGHT,OFFICE_OPEN_4,OFFICE_OPEN_4_WINDOW_4,OFFICE_OPEN_4_REFERENCEPOINT1,2.7355E-003
 Sky Daylight Factors,Clear Sky,01/01,OFFICE_PRIVATE_4_DAYLIGHT,OFFICE_PRIVATE_4,OFFICE_PRIVATE_4_WINDOW_1,OFFICE_PRIVATE_4_REFERENCEPOINT1,6.2864E-003
 Sky Daylight Factors,Clear Turbid Sky,01/01,OFFICE_PRIVATE_4_DAYLIGHT,OFFICE_PRIVATE_4,OFFICE_PRIVATE_4_WINDOW_1,OFFICE_PRIVATE_4_REFERENCEPOINT1,7.0444E-003
 Sky Daylight Factors,Intermediate Sky,01/01,OFFICE_PRIVATE_4_DAYLIGHT,OFFICE_PRIVATE_4,OFFICE_PRIVATE_4_WINDOW_1,OFFICE_PRIVATE_4_REFERENCEPOINT1,4.3525E-003
 Sky Daylight Factors,Overcast Sky,01/01,OFFICE_PRIVATE_4_DAYLIGHT,OFFICE_PRIVATE_4,OFFICE_PRIVATE_4_WINDOW_1,OFFICE_PRIVATE_4_REFERENCEPOINT1,2.0806E-003
 Sky Daylight Factors,Clear Sky,01/01,OFFICE_PRIVATE_4_DAYLIGHT,OFFICE_PRIVATE_4,OFFICE_PRIVATE_4_WINDOW_2,OFFICE_PRIVATE_4_REFERENCEPOINT1,6.6599E-003
 Sky Daylight Factors,Clear Turbid Sky,01/01,OFFICE_PRIVATE_4_DAYLIGHT,OFFICE_PRIVATE_4,OFFICE_PRIVATE_4_WINDOW_2,OFFICE_PRIVATE_4_REFERENCEPOINT1,6.1853E-003
 Sky Daylight Factors,Intermediate Sky,01/01,OFFICE_PRIVATE_4_DAYLIGHT,OFFICE_PRIVATE_4,OFFICE_PRIVATE_4_WINDOW_2,OFFICE_PRIVATE_4_REFERENCEPOINT1,6.2358E-003
 Sky Daylight Factors,Overcast Sky,01/01,OFFICE_PRIVATE_4_DAYLIGHT,OFFICE_PRIVATE_4,OFFICE_PRIVATE_4_WINDOW_2,OFFICE_PRIVATE_4_REFERENCEPOINT1,5.2702E-003
 Sky Daylight Factors,Clear Sky,01/01,OFFICE_PRIVATE_4_DAYLIGHT,OFFICE_PRIVATE_4,OFFICE_PRIVATE_4_WINDOW_3,OFFICE_PRIVATE_4_REFERENCEPOINT1,4.7760E-003
 Sky Daylight Factors,Clear Turbid Sky,01/01,OFFICE_PRIVATE_4_DAYLIGHT,OFFICE_PRIVATE_4,OFFICE_PRIVATE_4_WINDOW_3,OFFICE_PRIVATE_4_REFERENCEPOINT1,3.8903E-003
 Sky Daylight Factors,Intermediate Sky,01/01,OFFICE_PRIVATE_4_DAYLIGHT,OFFICE_PRIVATE_4,OFFICE_PRIVATE_4_WINDOW_3,OFFICE_PRIVATE_4_REFERENCEPOINT1,3.4914E-003
 Sky Daylight Factors,Overcast Sky,01/01,OFFICE_PRIVATE_4_DAYLIGHT,OFFICE_PRIVATE_4,OFFICE_PRIVATE_4_WINDOW_3,OFFICE_PRIVATE_4_REFERENCEPOINT1,4.8202E-003
 Sky Daylight Factors,Clear Sky,01/01,OFFICE_PRIVATE_4_DAYLIGHT,OFFICE_PRIVATE_4,OFFICE_PRIVATE_4_WINDOW_4,OFFICE_PRIVATE_4_REFERENCEPOINT1,7.5298E-003
 Sky Daylight Factors,Clear Turbid Sky,01/01,OFFICE_PRIVATE_4_DAYLIGHT,OFFICE_PRIVATE_4,OFFICE_PRIVATE_4_WINDOW_4,OFFICE_PRIVATE_4_REFERENCEPOINT1,7.0659E-003
 Sky Daylight Factors,Intermediate Sky,01/01,OFFICE_PRIVATE_4_DAYLIGHT,OFFICE_PRIVATE_4,OFFICE_PRIVATE_4_WINDOW_4,OFFICE_PRIVATE_4_REFERENCEPOINT1,7.0955E-003
 Sky Daylight Factors,Overcast Sky,01/01,OFFICE_PRIVATE_4_DAYLIGHT,OFFICE_PRIVATE_4,OFFICE_PRIVATE_4_WINDOW_4,OFFICE_PRIVATE_4_REFERENCEPOINT1,6.0986E-003
Environment:WarmupDays,  8
! <Warmup Convergence Information>,Zone Name,Environment Type/Name,Average Warmup Temperature Difference {deltaC},Std Dev Warmup Temperature Difference {deltaC},Max Temperature Pass/Fail Convergence,Min Temperature Pass/Fail Convergence,Average Warmup Load Difference {W},Std Dev Warmup Load Difference {W},Heating Load Pass/Fail Convergence,Cooling Load Pass/Fail Convergence
 Warmup Convergence Information,CONFERENCE_0,RunPeriod: YEAR ROUND RUN PERIOD,7.8373271956E-002,8.9985840580E-002,Pass,Pass,8.0133689993E-003,9.7716619140E-003,Pass,Pass
 Warmup Convergence Information,BREAK_ROOM_0,RunPeriod: YEAR ROUND RUN PERIOD,8.7598366050E-002,0.1037926686,Pass,Pass,9.1091689265E-003,1.2074658969E-002,Pass,Pass
 Warmup Convergence Information,MECHANICAL_0,RunPeriod: YEAR ROUND RUN PERIOD,7.1952378554E-002,9.4440802906E-002,Pass,Pass,6.4543649986E-003,8.5596721476E-003,Pass,Pass
 Warmup Convergence Information,OFFICE_OPEN_0,RunPeriod: YEAR ROUND RUN PERIOD,4.5860311026E-002,5.2830066248E-002,Pass,Pass,5.7070314669E-003,6.6646023055E-003,Pass,Pass
 Warmup Convergence Information,OFFICE_PRIVATE_0,RunPeriod: YEAR ROUND RUN PERIOD,0.1210462984,0.1732129247,Pass,Pass,9.0390207820E-003,1.3853895876E-002,Pass,Pass
 Warmup Convergence Information,STORAGE_0,RunPeriod: YEAR ROUND RUN PERIOD,0.1932627334,0.2092045613,Pass,Pass,1.5182423934E-002,1.6748476133E-002,Pass,Pass
 Warmup Convergence Information,LOBBY_1,RunPeriod: YEAR ROUND RUN PERIOD,6.6688687000E-002,7.6100763977E-002,Pass,Pass,6.9244152658E-003,7.9803830638E-003,Pass,Pass
 Warmup Convergence Information,BREAK_ROOM_1,RunPeriod: YEAR ROUND RUN PERIOD,9.5672115609E-002,0.1124635780,Pass,Pass,9.4703611807E-003,1.1358739323E-002,Pass,Pass
 Warmup Convergence Information,OFFICE_OPEN_1,RunPeriod: YEAR ROUND RUN PERIOD,5.6136381694E-002,6.1655331983E-002,Pass,Pass,6.5370445332E-003,7.2091670223E-003,Pass,Pass
 Warmup Convergence Information,OFFICE_PRIVATE_1,RunPeriod: YEAR ROUND RUN PERIOD,0.1095022414,0.1255888396,Pass,Pass,1.0062263931E-002,1.2018603539E-002,Pass,Pass
 Warmup Convergence Information,STORAGE_1,RunPeriod: YEAR ROUND RUN PERIOD,0.2024325685,0.2467443150,Pass,Pass,1.4168070597E-002,1.8044007313E-002,Pass,Pass
 Warmup Convergence Information,LOBBY_2,RunPeriod: YEAR ROUND RUN PERIOD,7.2516917310E-002,8.4809161483E-002,Pass,Pass,7.0936893193E-003,8.4122964126E-003,Pass,Pass
 Warmup Convergence Information,CONFERENCE_2,RunPeriod: YEAR ROUND RUN PERIOD,8.5523140318E-002,9.5150283990E-002,Pass,Pass,8.7609328785E-003,9.8686381821E-003,Pass,Pass
 Warmup Convergence Information,BREAK_ROOM_2,RunPeriod: YEAR ROUND RUN PERIOD,9.4295105304E-002,0.1111876727,Pass,Pass,9.1987291198E-003,1.1046017646E-002,Pass,Pass
 Warmup Convergence Information,MECHANICAL_2,RunPeriod: YEAR ROUND RUN PERIOD,7.6041129643E-002,9.9572212908E-002,Pass,Pass,6.9722465816E-003,9.0610474728E-003,Pass,Pass
 Warmup Convergence Information,OFFICE_OPEN_2,RunPeriod: YEAR ROUND RUN PERIOD,3.8666091963E-002,4.4151012971E-002,Pass,Pass,4.8420018750E-003,5.5885325292E-003,Pass,Pass
 Warmup Convergence Information,OFFICE_PRIVATE_2,RunPeriod: YEAR ROUND RUN PERIOD,0.1421577305,0.1599760952,Pass,Pass,1.1643606812E-002,1.4172508302E-002,Pass,Pass
 Warmup Convergence Information,STORAGE_2,RunPeriod: YEAR ROUND RUN PERIOD,0.1190520833,0.1609497066,Pass,Pass,8.5544224922E-003,1.2518160947E-002,Pass,Pass
 Warmup Convergence Information,LOBBY_3,RunPeriod: YEAR ROUND RUN PERIOD,6.1607126569E-002,7.1295372738E-002,Pass,Pass,6.3321175570E-003,7.4209734079E-003,Pass,Pass
 Warmup Convergence Information,CONFERENCE_3,RunPeriod: YEAR ROUND RUN PERIOD,8.2372585211E-002,9.0713165252E-002,Pass,Pass,8.5985308683E-003,9.5582154042E-003,Pass,Pass
 Warmup Convergence Information,BREAK_ROOM_3,RunPeriod: YEAR ROUND RUN PERIOD,0.1007595555,0.1153935401,Pass,Pass,1.0077733974E-002,1.1728173238E-002,Pass,Pass
 Warmup Convergence Information,MECHANICAL_3,RunPeriod: YEAR ROUND RUN PERIOD,8.4019393744E-002,9.7271008268E-002,Pass,Pass,7.6713091048E-003,8.9732393226E-003,Pass,Pass
 Warmup Convergence Information,OFFICE_OPEN_3,RunPeriod: YEAR ROUND RUN PERIOD,6.6655814943E-002,7.3359486562E-002,Pass,Pass,7.0151112952E-003,8.5006330458E-003,Pass,Pass
 Warmup Convergence Information,OFFICE_PRIVATE_3,RunPeriod: YEAR ROUND RUN PERIOD,0.1134136473,0.1277212937,Pass,Pass,1.0442552918E-002,1.1965151646E-002,Pass,Pass
 Warmup Convergence Information,LOBBY_4,RunPeriod: YEAR ROUND RUN PERIOD,6.7578589577E-002,7.5773746264E-002,Pass,Pass,6.9926804700E-003,7.9118601284E-003,Pass,Pass
 Warmup Convergence Information,CONFERENCE_4,RunPeriod: YEAR ROUND RUN PERIOD,0.1000190642,0.1123591203,Pass,Pass,9.6036616831E-003,1.0941196353E-002,Pass,Pass
 Warmup Convergence Information,MECHANICAL_4,RunPeriod: YEAR ROUND RUN PERIOD,9.5961070433E-002,0.1078603173,Pass,Pass,8.6412578823E-003,9.8022720970E-003,Pass,Pass
 Warmup Convergence Information,OFFICE_OPEN_4,RunPeriod: YEAR ROUND RUN PERIOD,5.1318469044E-002,5.7724688664E-002,Pass,Pass,5.9731737452E-003,6.7883217546E-003,Pass,Pass
 Warmup Convergence Information,OFFICE_PRIVATE_4,RunPeriod: YEAR ROUND RUN PERIOD,0.1156099797,0.1321240079,Pass,Pass,1.0467371221E-002,1.2172830153E-002,Pass,Pass
 Warmup Convergence Information,STORAGE_4,RunPeriod: YEAR ROUND RUN PERIOD,0.1270341492,0.1410016308,Pass,Pass,1.0803881870E-002,1.2173400196E-002,Pass,Pass
! <Program Control Information:Threads/Parallel Sims>, Threading Supported,Maximum Number of Threads, Env Set Threads (OMP_NUM_THREADS), EP Env Set Threads (EP_OMP_NUM_THREADS), IDF Set Threads, Number of Threads Used (Interior Radiant Exchange), Number Nominal Surfaces, Number Parallel Sims
Program Control:Threads/Parallel Sims, No,1, N/A, N/A, N/A, N/A, N/A, N/A
End of Data
