Program Version,EnergyPlus, Version 24.2.0-94a887817b, YMD=2025.11.02 19:29,
   ** Warning ** Site:GroundTemperature:BuildingSurface: Some values fall outside the range of 15-25C.
   **   ~~~   ** These values may be inappropriate.  Please consult the Input Output Reference for more details.
   ** Warning ** Weather file location will be used rather than entered (IDF) Location object.
   **   ~~~   ** ..Location object=SITE
   **   ~~~   ** ..Weather File Location=Chicago Ohare Intl Ap IL USA TMY3 WMO#=725300
   **   ~~~   ** ..due to location differences, Latitude difference=[9.47E-002] degrees, Longitude difference=[0.30] degrees.
   **   ~~~   ** ..Time Zone difference=[2.0] hour(s), Elevation difference=[1910.00] percent, [191.00] meters.
   ** Warning ** ProcessScheduleInput: Schedule:Compact="BREAK_ROOM_LIGHTING" has missing day types in Through=12/31
   **   ~~~   ** Last "For" field=FOR: WEEKENDS
   **   ~~~   ** Missing day types="Holiday","SummerDesignDay","WinterDesignDay","CustomDay1","CustomDay2"
   **   ~~~   ** Missing day types will have 0.0 as Schedule Values
   ** Warning ** ProcessScheduleInput: Schedule:Compact="BREAK_ROOM_EQUIPMENT" has missing day types in Through=12/31
   **   ~~~   ** Last "For" field=FOR: WEEKENDS
   **   ~~~   ** Missing day types="Holiday","SummerDesignDay","WinterDesignDay","CustomDay1","CustomDay2"
   **   ~~~   ** Missing day types will have 0.0 as Schedule Values
   ** Warning ** ProcessScheduleInput: Schedule:Compact="CONFERENCE_OCCUPANCY" has missing day types in Through=12/31
   **   ~~~   ** Last "For" field=FOR: WEEKENDS
   **   ~~~   ** Missing day types="Holiday","SummerDesignDay","WinterDesignDay","CustomDay1","CustomDay2"
   **   ~~~   ** Missing day types will have 0.0 as Schedule Values
   ** Warning ** ProcessScheduleInput: Schedule:Compact="CONFERENCE_LIGHTING" has missing day types in Through=12/31
   **   ~~~   ** Last "For" field=FOR: WEEKENDS
   **   ~~~   ** Missing day types="Holiday","SummerDesignDay","WinterDesignDay","CustomDay1","CustomDay2"
   **   ~~~   ** Missing day types will have 0.0 as Schedule Values
   ** Warning ** ProcessScheduleInput: Schedule:Compact="CONFERENCE_EQUIPMENT" has missing day types in Through=12/31
   **   ~~~   ** Last "For" field=FOR: WEEKENDS
   **   ~~~   ** Missing day types="Holiday","SummerDesignDay","WinterDesignDay","CustomDay1","CustomDay2"
   **   ~~~   ** Missing day types will have 0.0 as Schedule Values
   ** Warning ** ProcessScheduleInput: Schedule:Compact="LOBBY_LIGHTING" has missing day types in Through=12/31
   **   ~~~   ** Last "For" field=FOR: WEEKENDS
   **   ~~~   ** Missing day types="Holiday","SummerDesignDay","WinterDesignDay","CustomDay1","CustomDay2"
   **   ~~~   ** Missing day types will have 0.0 as Schedule Values
   ** Warning ** ProcessScheduleInput: Schedule:Compact="LOBBY_EQUIPMENT" has missing day types in Through=12/31
   **   ~~~   ** Last "For" field=FOR: WEEKENDS
   **   ~~~   ** Missing day types="Holiday","SummerDesignDay","WinterDesignDay","CustomDay1","CustomDay2"
   **   ~~~   ** Missing day types will have 0.0 as Schedule Values
   ** Warning ** ProcessScheduleInput: Schedule:Compact="MECHANICAL_LIGHTING" has missing day types in Through=12/31
   **   ~~~   ** Last "For" field=FOR: WEEKENDS
   **   ~~~   ** Missing day types="Holiday","SummerDesignDay","WinterDesignDay","CustomDay1","CustomDay2"
   **   ~~~   ** Missing day types will have 0.0 as Schedule Values
   ** Warning ** ProcessScheduleInput: Schedule:Compact="MECHANICAL_EQUIPMENT" has missing day types in Through=12/31
   **   ~~~   ** Last "For" field=FOR: WEEKENDS
   **   ~~~   ** Missing day types="Holiday","SummerDesignDay","WinterDesignDay","CustomDay1","CustomDay2"
   **   ~~~   ** Missing day types will have 0.0 as Schedule Values
   ** Warning ** ProcessScheduleInput: Schedule:Compact="OFFICE_OPEN_OCCUPANCY" has missing day types in Through=12/31
   **   ~~~   ** Last "For" field=FOR: WEEKENDS
   **   ~~~   ** Missing day types="Holiday","SummerDesignDay","WinterDesignDay","CustomDay1","CustomDay2"
   **   ~~~   ** Missing day types will have 0.0 as Schedule Values
   ** Warning ** ProcessScheduleInput: Schedule:Compact="OFFICE_OPEN_LIGHTING" has missing day types in Through=12/31
   **   ~~~   ** Last "For" field=FOR: WEEKENDS
   **   ~~~   ** Missing day types="Holiday","SummerDesignDay","WinterDesignDay","CustomDay1","CustomDay2"
   **   ~~~   ** Missing day types will have 0.0 as Schedule Values
   ** Warning ** ProcessScheduleInput: Schedule:Compact="OFFICE_OPEN_EQUIPMENT" has missing day types in Through=12/31
   **   ~~~   ** Last "For" field=FOR: WEEKENDS
   **   ~~~   ** Missing day types="Holiday","SummerDesignDay","WinterDesignDay","CustomDay1","CustomDay2"
   **   ~~~   ** Missing day types will have 0.0 as Schedule Values
   ** Warning ** ProcessScheduleInput: Schedule:Compact="STORAGE_LIGHTING" has missing day types in Through=12/31
   **   ~~~   ** Last "For" field=FOR: WEEKENDS
   **   ~~~   ** Missing day types="Holiday","SummerDesignDay","WinterDesignDay","CustomDay1","CustomDay2"
   **   ~~~   ** Missing day types will have 0.0 as Schedule Values
   ** Warning ** ProcessScheduleInput: Schedule:Compact="STORAGE_EQUIPMENT" has missing day types in Through=12/31
   **   ~~~   ** Last "For" field=FOR: WEEKENDS
   **   ~~~   ** Missing day types="Holiday","SummerDesignDay","WinterDesignDay","CustomDay1","CustomDay2"
   **   ~~~   ** Missing day types will have 0.0 as Schedule Values
   ** Warning ** No Glare Calculation Daylighting Reference Point Name provided for object named: CONFERENCE_0_DAYLIGHT
   **   ~~~   ** No glare calculation performed, and the simulation continues.
   ** Warning ** GetDaylightingControls: Fraction of zone or space controlled by the Daylighting reference points is < 1.0.
   **   ~~~   ** ..discovered in Daylighting:Controls="CONFERENCE_0_DAYLIGHT", only 0.900 of the zone or space is controlled.
   ** Warning ** No Glare Calculation Daylighting Reference Point Name provided for object named: BREAK_ROOM_0_DAYLIGHT
   **   ~~~   ** No glare calculation performed, and the simulation continues.
   ** Warning ** GetDaylightingControls: Fraction of zone or space controlled by the Daylighting reference points is < 1.0.
   **   ~~~   ** ..discovered in Daylighting:Controls="BREAK_ROOM_0_DAYLIGHT", only 0.900 of the zone or space is controlled.
   ** Warning ** No Glare Calculation Daylighting Reference Point Name provided for object named: OFFICE_OPEN_0_DAYLIGHT
   **   ~~~   ** No glare calculation performed, and the simulation continues.
   ** Warning ** GetDaylightingControls: Fraction of zone or space controlled by the Daylighting reference points is < 1.0.
   **   ~~~   ** ..discovered in Daylighting:Controls="OFFICE_OPEN_0_DAYLIGHT", only 0.900 of the zone or space is controlled.
   ** Warning ** No Glare Calculation Daylighting Reference Point Name provided for object named: OFFICE_PRIVATE_0_DAYLIGHT
   **   ~~~   ** No glare calculation performed, and the simulation continues.
   ** Warning ** GetDaylightingControls: Fraction of zone or space controlled by the Daylighting reference points is < 1.0.
   **   ~~~   ** ..discovered in Daylighting:Controls="OFFICE_PRIVATE_0_DAYLIGHT", only 0.900 of the zone or space is controlled.
   ** Warning ** No Glare Calculation Daylighting Reference Point Name provided for object named: LOBBY_1_DAYLIGHT
   **   ~~~   ** No glare calculation performed, and the simulation continues.
   ** Warning ** GetDaylightingControls: Fraction of zone or space controlled by the Daylighting reference points is < 1.0.
   **   ~~~   ** ..discovered in Daylighting:Controls="LOBBY_1_DAYLIGHT", only 0.900 of the zone or space is controlled.
   ** Warning ** No Glare Calculation Daylighting Reference Point Name provided for object named: BREAK_ROOM_1_DAYLIGHT
   **   ~~~   ** No glare calculation performed, and the simulation continues.
   ** Warning ** GetDaylightingControls: Fraction of zone or space controlled by the Daylighting reference points is < 1.0.
   **   ~~~   ** ..discovered in Daylighting:Controls="BREAK_ROOM_1_DAYLIGHT", only 0.900 of the zone or space is controlled.
   ** Warning ** No Glare Calculation Daylighting Reference Point Name provided for object named: OFFICE_OPEN_1_DAYLIGHT
   **   ~~~   ** No glare calculation performed, and the simulation continues.
   ** Warning ** GetDaylightingControls: Fraction of zone or space controlled by the Daylighting reference points is < 1.0.
   **   ~~~   ** ..discovered in Daylighting:Controls="OFFICE_OPEN_1_DAYLIGHT", only 0.900 of the zone or space is controlled.
   ** Warning ** No Glare Calculation Daylighting Reference Point Name provided for object named: OFFICE_PRIVATE_1_DAYLIGHT
   **   ~~~   ** No glare calculation performed, and the simulation continues.
   ** Warning ** GetDaylightingControls: Fraction of zone or space controlled by the Daylighting reference points is < 1.0.
   **   ~~~   ** ..discovered in Daylighting:Controls="OFFICE_PRIVATE_1_DAYLIGHT", only 0.900 of the zone or space is controlled.
   ** Warning ** No Glare Calculation Daylighting Reference Point Name provided for object named: LOBBY_2_DAYLIGHT
   **   ~~~   ** No glare calculation performed, and the simulation continues.
   ** Warning ** GetDaylightingControls: Fraction of zone or space controlled by the Daylighting reference points is < 1.0.
   **   ~~~   ** ..discovered in Daylighting:Controls="LOBBY_2_DAYLIGHT", only 0.900 of the zone or space is controlled.
   ** Warning ** No Glare Calculation Daylighting Reference Point Name provided for object named: CONFERENCE_2_DAYLIGHT
   **   ~~~   ** No glare calculation performed, and the simulation continues.
   ** Warning ** GetDaylightingControls: Fraction of zone or space controlled by the Daylighting reference points is < 1.0.
   **   ~~~   ** ..discovered in Daylighting:Controls="CONFERENCE_2_DAYLIGHT", only 0.900 of the zone or space is controlled.
   ** Warning ** No Glare Calculation Daylighting Reference Point Name provided for object named: BREAK_ROOM_2_DAYLIGHT
   **   ~~~   ** No glare calculation performed, and the simulation continues.
   ** Warning ** GetDaylightingControls: Fraction of zone or space controlled by the Daylighting reference points is < 1.0.
   **   ~~~   ** ..discovered in Daylighting:Controls="BREAK_ROOM_2_DAYLIGHT", only 0.900 of the zone or space is controlled.
   ** Warning ** No Glare Calculation Daylighting Reference Point Name provided for object named: OFFICE_OPEN_2_DAYLIGHT
   **   ~~~   ** No glare calculation performed, and the simulation continues.
   ** Warning ** GetDaylightingControls: Fraction of zone or space controlled by the Daylighting reference points is < 1.0.
   **   ~~~   ** ..discovered in Daylighting:Controls="OFFICE_OPEN_2_DAYLIGHT", only 0.900 of the zone or space is controlled.
   ** Warning ** No Glare Calculation Daylighting Reference Point Name provided for object named: OFFICE_PRIVATE_2_DAYLIGHT
   **   ~~~   ** No glare calculation performed, and the simulation continues.
   ** Warning ** GetDaylightingControls: Fraction of zone or space controlled by the Daylighting reference points is < 1.0.
   **   ~~~   ** ..discovered in Daylighting:Controls="OFFICE_PRIVATE_2_DAYLIGHT", only 0.900 of the zone or space is controlled.
   ** Warning ** No Glare Calculation Daylighting Reference Point Name provided for object named: LOBBY_3_DAYLIGHT
   **   ~~~   ** No glare calculation performed, and the simulation continues.
   ** Warning ** GetDaylightingControls: Fraction of zone or space controlled by the Daylighting reference points is < 1.0.
   **   ~~~   ** ..discovered in Daylighting:Controls="LOBBY_3_DAYLIGHT", only 0.900 of the zone or space is controlled.
   ** Warning ** No Glare Calculation Daylighting Reference Point Name provided for object named: CONFERENCE_3_DAYLIGHT
   **   ~~~   ** No glare calculation performed, and the simulation continues.
   ** Warning ** GetDaylightingControls: Fraction of zone or space controlled by the Daylighting reference points is < 1.0.
   **   ~~~   ** ..discovered in Daylighting:Controls="CONFERENCE_3_DAYLIGHT", only 0.900 of the zone or space is controlled.
   ** Warning ** No Glare Calculation Daylighting Reference Point Name provided for object named: BREAK_ROOM_3_DAYLIGHT
   **   ~~~   ** No glare calculation performed, and the simulation continues.
   ** Warning ** GetDaylightingControls: Fraction of zone or space controlled by the Daylighting reference points is < 1.0.
   **   ~~~   ** ..discovered in Daylighting:Controls="BREAK_ROOM_3_DAYLIGHT", only 0.900 of the zone or space is controlled.
   ** Warning ** No Glare Calculation Daylighting Reference Point Name provided for object named: OFFICE_OPEN_3_DAYLIGHT
   **   ~~~   ** No glare calculation performed, and the simulation continues.
   ** Warning ** GetDaylightingControls: Fraction of zone or space controlled by the Daylighting reference points is < 1.0.
   **   ~~~   ** ..discovered in Daylighting:Controls="OFFICE_OPEN_3_DAYLIGHT", only 0.900 of the zone or space is controlled.
   ** Warning ** No Glare Calculation Daylighting Reference Point Name provided for object named: OFFICE_PRIVATE_3_DAYLIGHT
   **   ~~~   ** No glare calculation performed, and the simulation continues.
   ** Warning ** GetDaylightingControls: Fraction of zone or space controlled by the Daylighting reference points is < 1.0.
   **   ~~~   ** ..discovered in Daylighting:Controls="OFFICE_PRIVATE_3_DAYLIGHT", only 0.900 of the zone or space is controlled.
   ** Warning ** No Glare Calculation Daylighting Reference Point Name provided for object named: LOBBY_4_DAYLIGHT
   **   ~~~   ** No glare calculation performed, and the simulation continues.
   ** Warning ** GetDaylightingControls: Fraction of zone or space controlled by the Daylighting reference points is < 1.0.
   **   ~~~   ** ..discovered in Daylighting:Controls="LOBBY_4_DAYLIGHT", only 0.900 of the zone or space is controlled.
   ** Warning ** No Glare Calculation Daylighting Reference Point Name provided for object named: CONFERENCE_4_DAYLIGHT
   **   ~~~   ** No glare calculation performed, and the simulation continues.
   ** Warning ** GetDaylightingControls: Fraction of zone or space controlled by the Daylighting reference points is < 1.0.
   **   ~~~   ** ..discovered in Daylighting:Controls="CONFERENCE_4_DAYLIGHT", only 0.900 of the zone or space is controlled.
   ** Warning ** No Glare Calculation Daylighting Reference Point Name provided for object named: OFFICE_OPEN_4_DAYLIGHT
   **   ~~~   ** No glare calculation performed, and the simulation continues.
   ** Warning ** GetDaylightingControls: Fraction of zone or space controlled by the Daylighting reference points is < 1.0.
   **   ~~~   ** ..discovered in Daylighting:Controls="OFFICE_OPEN_4_DAYLIGHT", only 0.900 of the zone or space is controlled.
   ** Warning ** No Glare Calculation Daylighting Reference Point Name provided for object named: OFFICE_PRIVATE_4_DAYLIGHT
   **   ~~~   ** No glare calculation performed, and the simulation continues.
   ** Warning ** GetDaylightingControls: Fraction of zone or space controlled by the Daylighting reference points is < 1.0.
   **   ~~~   ** ..discovered in Daylighting:Controls="OFFICE_PRIVATE_4_DAYLIGHT", only 0.900 of the zone or space is controlled.
   ** Warning ** GeometryTransformForDaylighting: Reference point X Value outside Zone Min/Max X, Zone=CONFERENCE_0
   **   ~~~   ** ...X Reference Point= 2.00, Zone Minimum X= 2.73, Zone Maximum X= 11.34
   **   ~~~   ** ...X Reference Distance Outside MinimumX= 0.7340 m.
   ** Warning ** GeometryTransformForDaylighting: Reference point Y Value outside Zone Min/Max Y, Zone=CONFERENCE_0
   **   ~~~   ** ...Y Reference Point= 2.00, Zone Minimum Y= 13.42, Zone Maximum Y= 23.31
   **   ~~~   ** ...Y Reference Distance Outside MinimumY= 11.4187 m.
   ** Warning ** GeometryTransformForDaylighting: Reference point Y Value outside Zone Min/Max Y, Zone=BREAK_ROOM_0
   **   ~~~   ** ...Y Reference Point= 2.00, Zone Minimum Y= 14.82, Zone Maximum Y= 26.35
   **   ~~~   ** ...Y Reference Distance Outside MinimumY= 12.8238 m.
   ** Warning ** GeometryTransformForDaylighting: Reference point X Value outside Zone Min/Max X, Zone=OFFICE_OPEN_0
   **   ~~~   ** ...X Reference Point= 2.00, Zone Minimum X= 10.00, Zone Maximum X= 23.85
   **   ~~~   ** ...X Reference Distance Outside MinimumX= 7.9981 m.
   ** Warning ** GeometryTransformForDaylighting: Reference point X Value outside Zone Min/Max X, Zone=OFFICE_PRIVATE_0
   **   ~~~   ** ...X Reference Point= 2.00, Zone Minimum X= 18.94, Zone Maximum X= 22.60
   **   ~~~   ** ...X Reference Distance Outside MinimumX= 16.9443 m.
   ** Warning ** GeometryTransformForDaylighting: Reference point Y Value outside Zone Min/Max Y, Zone=OFFICE_PRIVATE_0
   **   ~~~   ** ...Y Reference Point= 2.00, Zone Minimum Y= 22.63, Zone Maximum Y= 28.76
   **   ~~~   ** ...Y Reference Distance Outside MinimumY= 20.6311 m.
   ** Warning ** GeometryTransformForDaylighting: Reference point X Value outside Zone Min/Max X, Zone=LOBBY_1
   **   ~~~   ** ...X Reference Point= 2.00, Zone Minimum X= 6.39, Zone Maximum X= 15.37
   **   ~~~   ** ...X Reference Distance Outside MinimumX= 4.3854 m.
   ** Warning ** GeometryTransformForDaylighting: Reference point Y Value outside Zone Min/Max Y, Zone=LOBBY_1
   **   ~~~   ** ...Y Reference Point= 2.00, Zone Minimum Y= 15.99, Zone Maximum Y= 30.99
   **   ~~~   ** ...Y Reference Distance Outside MinimumY= 13.9860 m.
   ** Warning ** GeometryTransformForDaylighting: Reference point Z Value outside Zone Min/Max Z, Zone=LOBBY_1
   **   ~~~   ** ...Z Reference Point= 0.80, Zone Minimum Z= 3.00, Zone Maximum Z= 6.00
   **   ~~~   ** ...Z Reference Distance Outside MinimumZ= 2.2000 m.
   ** Warning ** GeometryTransformForDaylighting: Reference point X Value outside Zone Min/Max X, Zone=BREAK_ROOM_1
   **   ~~~   ** ...X Reference Point= 2.00, Zone Minimum X= 40.95, Zone Maximum X= 46.99
   **   ~~~   ** ...X Reference Distance Outside MinimumX= 38.9508 m.
   ** Warning ** GeometryTransformForDaylighting: Reference point Y Value outside Zone Min/Max Y, Zone=BREAK_ROOM_1
   **   ~~~   ** ...Y Reference Point= 2.00, Zone Minimum Y= 33.35, Zone Maximum Y= 44.26
   **   ~~~   ** ...Y Reference Distance Outside MinimumY= 31.3467 m.
   ** Warning ** GeometryTransformForDaylighting: Reference point Z Value outside Zone Min/Max Z, Zone=BREAK_ROOM_1
   **   ~~~   ** ...Z Reference Point= 0.80, Zone Minimum Z= 3.00, Zone Maximum Z= 6.00
   **   ~~~   ** ...Z Reference Distance Outside MinimumZ= 2.2000 m.
   ** Warning ** GeometryTransformForDaylighting: Reference point X Value outside Zone Min/Max X, Zone=OFFICE_OPEN_1
   **   ~~~   ** ...X Reference Point= 2.00, Zone Minimum X= 13.16, Zone Maximum X= 26.46
   **   ~~~   ** ...X Reference Distance Outside MinimumX= 11.1565 m.
   ** Warning ** GeometryTransformForDaylighting: Reference point Y Value outside Zone Min/Max Y, Zone=OFFICE_OPEN_1
   **   ~~~   ** ...Y Reference Point= 2.00, Zone Minimum Y= 14.78, Zone Maximum Y= 29.57
   **   ~~~   ** ...Y Reference Distance Outside MinimumY= 12.7801 m.
   ** Warning ** GeometryTransformForDaylighting: Reference point Z Value outside Zone Min/Max Z, Zone=OFFICE_OPEN_1
   **   ~~~   ** ...Z Reference Point= 0.80, Zone Minimum Z= 3.00, Zone Maximum Z= 6.00
   **   ~~~   ** ...Z Reference Distance Outside MinimumZ= 2.2000 m.
   ** Warning ** GeometryTransformForDaylighting: Reference point X Value outside Zone Min/Max X, Zone=OFFICE_PRIVATE_1
   **   ~~~   ** ...X Reference Point= 2.00, Zone Minimum X= 10.88, Zone Maximum X= 17.29
   **   ~~~   ** ...X Reference Distance Outside MinimumX= 8.8754 m.
   ** Warning ** GeometryTransformForDaylighting: Reference point Y Value outside Zone Min/Max Y, Zone=OFFICE_PRIVATE_1
   **   ~~~   ** ...Y Reference Point= 2.00, Zone Minimum Y= 28.43, Zone Maximum Y= 35.08
   **   ~~~   ** ...Y Reference Distance Outside MinimumY= 26.4332 m.
   ** Warning ** GeometryTransformForDaylighting: Reference point Z Value outside Zone Min/Max Z, Zone=OFFICE_PRIVATE_1
   **   ~~~   ** ...Z Reference Point= 0.80, Zone Minimum Z= 3.00, Zone Maximum Z= 6.00
   **   ~~~   ** ...Z Reference Distance Outside MinimumZ= 2.2000 m.
   ** Warning ** GeometryTransformForDaylighting: Reference point X Value outside Zone Min/Max X, Zone=LOBBY_2
   **   ~~~   ** ...X Reference Point= 2.00, Zone Minimum X= 3.47, Zone Maximum X= 11.34
   **   ~~~   ** ...X Reference Distance Outside MinimumX= 1.4710 m.
   ** Warning ** GeometryTransformForDaylighting: Reference point Y Value outside Zone Min/Max Y, Zone=LOBBY_2
   **   ~~~   ** ...Y Reference Point= 2.00, Zone Minimum Y= 31.71, Zone Maximum Y= 45.82
   **   ~~~   ** ...Y Reference Distance Outside MinimumY= 29.7063 m.
   ** Warning ** GeometryTransformForDaylighting: Reference point Z Value outside Zone Min/Max Z, Zone=LOBBY_2
   **   ~~~   ** ...Z Reference Point= 0.80, Zone Minimum Z= 6.00, Zone Maximum Z= 9.00
   **   ~~~   ** ...Z Reference Distance Outside MinimumZ= 5.2000 m.
   ** Warning ** GeometryTransformForDaylighting: Reference point X Value outside Zone Min/Max X, Zone=CONFERENCE_2
   **   ~~~   ** ...X Reference Point= 2.00, Zone Minimum X= 16.37, Zone Maximum X= 25.05
   **   ~~~   ** ...X Reference Distance Outside MinimumX= 14.3668 m.
   ** Warning ** GeometryTransformForDaylighting: Reference point Z Value outside Zone Min/Max Z, Zone=CONFERENCE_2
   **   ~~~   ** ...Z Reference Point= 0.80, Zone Minimum Z= 6.00, Zone Maximum Z= 9.00
   **   ~~~   ** ...Z Reference Distance Outside MinimumZ= 5.2000 m.
   ** Warning ** GeometryTransformForDaylighting: Reference point Y Value outside Zone Min/Max Y, Zone=BREAK_ROOM_2
   **   ~~~   ** ...Y Reference Point= 2.00, Zone Minimum Y= 20.47, Zone Maximum Y= 30.89
   **   ~~~   ** ...Y Reference Distance Outside MinimumY= 18.4740 m.
   ** Warning ** GeometryTransformForDaylighting: Reference point Z Value outside Zone Min/Max Z, Zone=BREAK_ROOM_2
   **   ~~~   ** ...Z Reference Point= 0.80, Zone Minimum Z= 6.00, Zone Maximum Z= 9.00
   **   ~~~   ** ...Z Reference Distance Outside MinimumZ= 5.2000 m.
   ** Warning ** GeometryTransformForDaylighting: Reference point X Value outside Zone Min/Max X, Zone=OFFICE_OPEN_2
   **   ~~~   ** ...X Reference Point= 2.00, Zone Minimum X= 30.32, Zone Maximum X= 46.85
   **   ~~~   ** ...X Reference Distance Outside MinimumX= 28.3225 m.
   ** Warning ** GeometryTransformForDaylighting: Reference point Y Value outside Zone Min/Max Y, Zone=OFFICE_OPEN_2
   **   ~~~   ** ...Y Reference Point= 2.00, Zone Minimum Y= 11.31, Zone Maximum Y= 35.86
   **   ~~~   ** ...Y Reference Distance Outside MinimumY= 9.3126 m.
   ** Warning ** GeometryTransformForDaylighting: Reference point Z Value outside Zone Min/Max Z, Zone=OFFICE_OPEN_2
   **   ~~~   ** ...Z Reference Point= 0.80, Zone Minimum Z= 6.00, Zone Maximum Z= 9.00
   **   ~~~   ** ...Z Reference Distance Outside MinimumZ= 5.2000 m.
   ** Warning ** GeometryTransformForDaylighting: Reference point X Value outside Zone Min/Max X, Zone=OFFICE_PRIVATE_2
   **   ~~~   ** ...X Reference Point= 2.00, Zone Minimum X= 11.04, Zone Maximum X= 15.58
   **   ~~~   ** ...X Reference Distance Outside MinimumX= 9.0352 m.
   ** Warning ** GeometryTransformForDaylighting: Reference point Y Value outside Zone Min/Max Y, Zone=OFFICE_PRIVATE_2
   **   ~~~   ** ...Y Reference Point= 2.00, Zone Minimum Y= 36.72, Zone Maximum Y= 42.22
   **   ~~~   ** ...Y Reference Distance Outside MinimumY= 34.7173 m.
   ** Warning ** GeometryTransformForDaylighting: Reference point Z Value outside Zone Min/Max Z, Zone=OFFICE_PRIVATE_2
   **   ~~~   ** ...Z Reference Point= 0.80, Zone Minimum Z= 6.00, Zone Maximum Z= 9.00
   **   ~~~   ** ...Z Reference Distance Outside MinimumZ= 5.2000 m.
   ** Warning ** GeometryTransformForDaylighting: Reference point Y Value outside Zone Min/Max Y, Zone=LOBBY_3
   **   ~~~   ** ...Y Reference Point= 2.00, Zone Minimum Y= 21.28, Zone Maximum Y= 36.68
   **   ~~~   ** ...Y Reference Distance Outside MinimumY= 19.2770 m.
   ** Warning ** GeometryTransformForDaylighting: Reference point Z Value outside Zone Min/Max Z, Zone=LOBBY_3
   **   ~~~   ** ...Z Reference Point= 0.80, Zone Minimum Z= 9.00, Zone Maximum Z= 12.00
   **   ~~~   ** ...Z Reference Distance Outside MinimumZ= 8.2000 m.
   ** Warning ** GeometryTransformForDaylighting: Reference point X Value outside Zone Min/Max X, Zone=CONFERENCE_3
   **   ~~~   ** ...X Reference Point= 2.00, Zone Minimum X= 33.31, Zone Maximum X= 42.91
   **   ~~~   ** ...X Reference Distance Outside MinimumX= 31.3119 m.
   ** Warning ** GeometryTransformForDaylighting: Reference point Y Value outside Zone Min/Max Y, Zone=CONFERENCE_3
   **   ~~~   ** ...Y Reference Point= 2.00, Zone Minimum Y= 2.83, Zone Maximum Y= 12.70
   **   ~~~   ** ...Y Reference Distance Outside MinimumY= 0.8342 m.
   ** Warning ** GeometryTransformForDaylighting: Reference point Z Value outside Zone Min/Max Z, Zone=CONFERENCE_3
   **   ~~~   ** ...Z Reference Point= 0.80, Zone Minimum Z= 9.00, Zone Maximum Z= 12.00
   **   ~~~   ** ...Z Reference Distance Outside MinimumZ= 8.2000 m.
   ** Warning ** GeometryTransformForDaylighting: Reference point X Value outside Zone Min/Max X, Zone=BREAK_ROOM_3
   **   ~~~   ** ...X Reference Point= 2.00, Zone Minimum X= 34.58, Zone Maximum X= 40.69
   **   ~~~   ** ...X Reference Distance Outside MinimumX= 32.5789 m.
   ** Warning ** GeometryTransformForDaylighting: Reference point Y Value outside Zone Min/Max Y, Zone=BREAK_ROOM_3
   **   ~~~   ** ...Y Reference Point= 2.00, Zone Minimum Y= 3.99, Zone Maximum Y= 13.99
   **   ~~~   ** ...Y Reference Distance Outside MinimumY= 1.9854 m.
   ** Warning ** GeometryTransformForDaylighting: Reference point Z Value outside Zone Min/Max Z, Zone=BREAK_ROOM_3
   **   ~~~   ** ...Z Reference Point= 0.80, Zone Minimum Z= 9.00, Zone Maximum Z= 12.00
   **   ~~~   ** ...Z Reference Distance Outside MinimumZ= 8.2000 m.
   ** Warning ** GeometryTransformForDaylighting: Reference point X Value outside Zone Min/Max X, Zone=OFFICE_OPEN_3
   **   ~~~   ** ...X Reference Point= 2.00, Zone Minimum X= 24.49, Zone Maximum X= 35.04
   **   ~~~   ** ...X Reference Distance Outside MinimumX= 22.4917 m.
   ** Warning ** GeometryTransformForDaylighting: Reference point Y Value outside Zone Min/Max Y, Zone=OFFICE_OPEN_3
   **   ~~~   ** ...Y Reference Point= 2.00, Zone Minimum Y= 24.70, Zone Maximum Y= 36.82
   **   ~~~   ** ...Y Reference Distance Outside MinimumY= 22.7032 m.
   ** Warning ** GeometryTransformForDaylighting: Reference point Z Value outside Zone Min/Max Z, Zone=OFFICE_OPEN_3
   **   ~~~   ** ...Z Reference Point= 0.80, Zone Minimum Z= 9.00, Zone Maximum Z= 12.00
   **   ~~~   ** ...Z Reference Distance Outside MinimumZ= 8.2000 m.
   ** Warning ** GeometryTransformForDaylighting: Reference point X Value outside Zone Min/Max X, Zone=OFFICE_PRIVATE_3
   **   ~~~   ** ...X Reference Point= 2.00, Zone Minimum X= 5.78, Zone Maximum X= 11.51
   **   ~~~   ** ...X Reference Distance Outside MinimumX= 3.7813 m.
   ** Warning ** GeometryTransformForDaylighting: Reference point Y Value outside Zone Min/Max Y, Zone=OFFICE_PRIVATE_3
   **   ~~~   ** ...Y Reference Point= 2.00, Zone Minimum Y= 17.80, Zone Maximum Y= 25.88
   **   ~~~   ** ...Y Reference Distance Outside MinimumY= 15.7959 m.
   ** Warning ** GeometryTransformForDaylighting: Reference point Z Value outside Zone Min/Max Z, Zone=OFFICE_PRIVATE_3
   **   ~~~   ** ...Z Reference Point= 0.80, Zone Minimum Z= 9.00, Zone Maximum Z= 12.00
   **   ~~~   ** ...Z Reference Distance Outside MinimumZ= 8.2000 m.
   ** Warning ** GeometryTransformForDaylighting: Reference point X Value outside Zone Min/Max X, Zone=LOBBY_4
   **   ~~~   ** ...X Reference Point= 2.00, Zone Minimum X= 35.79, Zone Maximum X= 46.34
   **   ~~~   ** ...X Reference Distance Outside MinimumX= 33.7913 m.
   ** Warning ** GeometryTransformForDaylighting: Reference point Y Value outside Zone Min/Max Y, Zone=LOBBY_4
   **   ~~~   ** ...Y Reference Point= 2.00, Zone Minimum Y= 17.40, Zone Maximum Y= 30.24
   **   ~~~   ** ...Y Reference Distance Outside MinimumY= 15.4035 m.
   ** Warning ** GeometryTransformForDaylighting: Reference point Z Value outside Zone Min/Max Z, Zone=LOBBY_4
   **   ~~~   ** ...Z Reference Point= 0.80, Zone Minimum Z= 12.00, Zone Maximum Z= 15.00
   **   ~~~   ** ...Z Reference Distance Outside MinimumZ= 11.2000 m.
   ** Warning ** GeometryTransformForDaylighting: Reference point Y Value outside Zone Min/Max Y, Zone=CONFERENCE_4
   **   ~~~   ** ...Y Reference Point= 2.00, Zone Minimum Y= 7.55, Zone Maximum Y= 16.53
   **   ~~~   ** ...Y Reference Distance Outside MinimumY= 5.5543 m.
   ** Warning ** GeometryTransformForDaylighting: Reference point Z Value outside Zone Min/Max Z, Zone=CONFERENCE_4
   **   ~~~   ** ...Z Reference Point= 0.80, Zone Minimum Z= 12.00, Zone Maximum Z= 15.00
   **   ~~~   ** ...Z Reference Distance Outside MinimumZ= 11.2000 m.
   ** Warning ** GeometryTransformForDaylighting: Reference point X Value outside Zone Min/Max X, Zone=OFFICE_OPEN_4
   **   ~~~   ** ...X Reference Point= 2.00, Zone Minimum X= 15.39, Zone Maximum X= 28.98
   **   ~~~   ** ...X Reference Distance Outside MinimumX= 13.3860 m.
   ** Warning ** GeometryTransformForDaylighting: Reference point Y Value outside Zone Min/Max Y, Zone=OFFICE_OPEN_4
   **   ~~~   ** ...Y Reference Point= 2.00, Zone Minimum Y= 33.42, Zone Maximum Y= 51.04
   **   ~~~   ** ...Y Reference Distance Outside MinimumY= 31.4164 m.
   ** Warning ** GeometryTransformForDaylighting: Reference point Z Value outside Zone Min/Max Z, Zone=OFFICE_OPEN_4
   **   ~~~   ** ...Z Reference Point= 0.80, Zone Minimum Z= 12.00, Zone Maximum Z= 15.00
   **   ~~~   ** ...Z Reference Distance Outside MinimumZ= 11.2000 m.
   ** Warning ** GeometryTransformForDaylighting: Reference point Y Value outside Zone Min/Max Y, Zone=OFFICE_PRIVATE_4
   **   ~~~   ** ...Y Reference Point= 2.00, Zone Minimum Y= 40.26, Zone Maximum Y= 48.92
   **   ~~~   ** ...Y Reference Distance Outside MinimumY= 38.2600 m.
   ** Warning ** GeometryTransformForDaylighting: Reference point Z Value outside Zone Min/Max Z, Zone=OFFICE_PRIVATE_4
   **   ~~~   ** ...Z Reference Point= 0.80, Zone Minimum Z= 12.00, Zone Maximum Z= 15.00
   **   ~~~   ** ...Z Reference Distance Outside MinimumZ= 11.2000 m.
   ** Warning ** Since Damper Heating Action = NORMAL, input for Maximum Flow per Zone Floor Area During Reheat will be ignored.
   **   ~~~   ** Occurs in AirTerminal:SingleDuct:VAV:Reheat = CONFERENCE_0_Z1_VAVTERMINAL
   ** Warning ** Since Damper Heating Action = NORMAL, input for Maximum Flow Fraction During Reheat will be ignored.
   **   ~~~   ** Occurs in AirTerminal:SingleDuct:VAV:Reheat = CONFERENCE_0_Z1_VAVTERMINAL
   ** Warning ** Since Damper Heating Action = NORMAL, input for Maximum Flow per Zone Floor Area During Reheat will be ignored.
   **   ~~~   ** Occurs in AirTerminal:SingleDuct:VAV:Reheat = BREAK_ROOM_0_Z2_VAVTERMINAL
   ** Warning ** Since Damper Heating Action = NORMAL, input for Maximum Flow Fraction During Reheat will be ignored.
   **   ~~~   ** Occurs in AirTerminal:SingleDuct:VAV:Reheat = BREAK_ROOM_0_Z2_VAVTERMINAL
   ** Warning ** Since Damper Heating Action = NORMAL, input for Maximum Flow per Zone Floor Area During Reheat will be ignored.
   **   ~~~   ** Occurs in AirTerminal:SingleDuct:VAV:Reheat = MECHANICAL_0_Z3_VAVTERMINAL
   ** Warning ** Since Damper Heating Action = NORMAL, input for Maximum Flow Fraction During Reheat will be ignored.
   **   ~~~   ** Occurs in AirTerminal:SingleDuct:VAV:Reheat = MECHANICAL_0_Z3_VAVTERMINAL
   ** Warning ** Since Damper Heating Action = NORMAL, input for Maximum Flow per Zone Floor Area During Reheat will be ignored.
   **   ~~~   ** Occurs in AirTerminal:SingleDuct:VAV:Reheat = OFFICE_OPEN_0_Z4_VAVTERMINAL
   ** Warning ** Since Damper Heating Action = NORMAL, input for Maximum Flow Fraction During Reheat will be ignored.
   **   ~~~   ** Occurs in AirTerminal:SingleDuct:VAV:Reheat = OFFICE_OPEN_0_Z4_VAVTERMINAL
   ** Warning ** Since Damper Heating Action = NORMAL, input for Maximum Flow per Zone Floor Area During Reheat will be ignored.
   **   ~~~   ** Occurs in AirTerminal:SingleDuct:VAV:Reheat = OFFICE_PRIVATE_0_Z5_VAVTERMINAL
   ** Warning ** Since Damper Heating Action = NORMAL, input for Maximum Flow Fraction During Reheat will be ignored.
   **   ~~~   ** Occurs in AirTerminal:SingleDuct:VAV:Reheat = OFFICE_PRIVATE_0_Z5_VAVTERMINAL
   ** Warning ** Since Damper Heating Action = NORMAL, input for Maximum Flow per Zone Floor Area During Reheat will be ignored.
   **   ~~~   ** Occurs in AirTerminal:SingleDuct:VAV:Reheat = STORAGE_0_Z6_VAVTERMINAL
   ** Warning ** Since Damper Heating Action = NORMAL, input for Maximum Flow Fraction During Reheat will be ignored.
   **   ~~~   ** Occurs in AirTerminal:SingleDuct:VAV:Reheat = STORAGE_0_Z6_VAVTERMINAL
   ** Warning ** Since Damper Heating Action = NORMAL, input for Maximum Flow per Zone Floor Area During Reheat will be ignored.
   **   ~~~   ** Occurs in AirTerminal:SingleDuct:VAV:Reheat = LOBBY_1_Z7_VAVTERMINAL
   ** Warning ** Since Damper Heating Action = NORMAL, input for Maximum Flow Fraction During Reheat will be ignored.
   **   ~~~   ** Occurs in AirTerminal:SingleDuct:VAV:Reheat = LOBBY_1_Z7_VAVTERMINAL
   ** Warning ** Since Damper Heating Action = NORMAL, input for Maximum Flow per Zone Floor Area During Reheat will be ignored.
   **   ~~~   ** Occurs in AirTerminal:SingleDuct:VAV:Reheat = BREAK_ROOM_1_Z8_VAVTERMINAL
   ** Warning ** Since Damper Heating Action = NORMAL, input for Maximum Flow Fraction During Reheat will be ignored.
   **   ~~~   ** Occurs in AirTerminal:SingleDuct:VAV:Reheat = BREAK_ROOM_1_Z8_VAVTERMINAL
   ** Warning ** Since Damper Heating Action = NORMAL, input for Maximum Flow per Zone Floor Area During Reheat will be ignored.
   **   ~~~   ** Occurs in AirTerminal:SingleDuct:VAV:Reheat = OFFICE_OPEN_1_Z9_VAVTERMINAL
   ** Warning ** Since Damper Heating Action = NORMAL, input for Maximum Flow Fraction During Reheat will be ignored.
   **   ~~~   ** Occurs in AirTerminal:SingleDuct:VAV:Reheat = OFFICE_OPEN_1_Z9_VAVTERMINAL
   ** Warning ** Since Damper Heating Action = NORMAL, input for Maximum Flow per Zone Floor Area During Reheat will be ignored.
   **   ~~~   ** Occurs in AirTerminal:SingleDuct:VAV:Reheat = OFFICE_PRIVATE_1_Z10_VAVTERMINAL
   ** Warning ** Since Damper Heating Action = NORMAL, input for Maximum Flow Fraction During Reheat will be ignored.
   **   ~~~   ** Occurs in AirTerminal:SingleDuct:VAV:Reheat = OFFICE_PRIVATE_1_Z10_VAVTERMINAL
   ** Warning ** Since Damper Heating Action = NORMAL, input for Maximum Flow per Zone Floor Area During Reheat will be ignored.
   **   ~~~   ** Occurs in AirTerminal:SingleDuct:VAV:Reheat = STORAGE_1_Z11_VAVTERMINAL
   ** Warning ** Since Damper Heating Action = NORMAL, input for Maximum Flow Fraction During Reheat will be ignored.
   **   ~~~   ** Occurs in AirTerminal:SingleDuct:VAV:Reheat = STORAGE_1_Z11_VAVTERMINAL
   ** Warning ** Since Damper Heating Action = NORMAL, input for Maximum Flow per Zone Floor Area During Reheat will be ignored.
   **   ~~~   ** Occurs in AirTerminal:SingleDuct:VAV:Reheat = LOBBY_2_Z12_VAVTERMINAL
   ** Warning ** Since Damper Heating Action = NORMAL, input for Maximum Flow Fraction During Reheat will be ignored.
   **   ~~~   ** Occurs in AirTerminal:SingleDuct:VAV:Reheat = LOBBY_2_Z12_VAVTERMINAL
   ** Warning ** Since Damper Heating Action = NORMAL, input for Maximum Flow per Zone Floor Area During Reheat will be ignored.
   **   ~~~   ** Occurs in AirTerminal:SingleDuct:VAV:Reheat = CONFERENCE_2_Z13_VAVTERMINAL
   ** Warning ** Since Damper Heating Action = NORMAL, input for Maximum Flow Fraction During Reheat will be ignored.
   **   ~~~   ** Occurs in AirTerminal:SingleDuct:VAV:Reheat = CONFERENCE_2_Z13_VAVTERMINAL
   ** Warning ** Since Damper Heating Action = NORMAL, input for Maximum Flow per Zone Floor Area During Reheat will be ignored.
   **   ~~~   ** Occurs in AirTerminal:SingleDuct:VAV:Reheat = BREAK_ROOM_2_Z14_VAVTERMINAL
   ** Warning ** Since Damper Heating Action = NORMAL, input for Maximum Flow Fraction During Reheat will be ignored.
   **   ~~~   ** Occurs in AirTerminal:SingleDuct:VAV:Reheat = BREAK_ROOM_2_Z14_VAVTERMINAL
   ** Warning ** Since Damper Heating Action = NORMAL, input for Maximum Flow per Zone Floor Area During Reheat will be ignored.
   **   ~~~   ** Occurs in AirTerminal:SingleDuct:VAV:Reheat = MECHANICAL_2_Z15_VAVTERMINAL
   ** Warning ** Since Damper Heating Action = NORMAL, input for Maximum Flow Fraction During Reheat will be ignored.
   **   ~~~   ** Occurs in AirTerminal:SingleDuct:VAV:Reheat = MECHANICAL_2_Z15_VAVTERMINAL
   ** Warning ** Since Damper Heating Action = NORMAL, input for Maximum Flow per Zone Floor Area During Reheat will be ignored.
   **   ~~~   ** Occurs in AirTerminal:SingleDuct:VAV:Reheat = OFFICE_OPEN_2_Z16_VAVTERMINAL
   ** Warning ** Since Damper Heating Action = NORMAL, input for Maximum Flow Fraction During Reheat will be ignored.
   **   ~~~   ** Occurs in AirTerminal:SingleDuct:VAV:Reheat = OFFICE_OPEN_2_Z16_VAVTERMINAL
   ** Warning ** Since Damper Heating Action = NORMAL, input for Maximum Flow per Zone Floor Area During Reheat will be ignored.
   **   ~~~   ** Occurs in AirTerminal:SingleDuct:VAV:Reheat = OFFICE_PRIVATE_2_Z17_VAVTERMINAL
   ** Warning ** Since Damper Heating Action = NORMAL, input for Maximum Flow Fraction During Reheat will be ignored.
   **   ~~~   ** Occurs in AirTerminal:SingleDuct:VAV:Reheat = OFFICE_PRIVATE_2_Z17_VAVTERMINAL
   ** Warning ** Since Damper Heating Action = NORMAL, input for Maximum Flow per Zone Floor Area During Reheat will be ignored.
   **   ~~~   ** Occurs in AirTerminal:SingleDuct:VAV:Reheat = STORAGE_2_Z18_VAVTERMINAL
   ** Warning ** Since Damper Heating Action = NORMAL, input for Maximum Flow Fraction During Reheat will be ignored.
   **   ~~~   ** Occurs in AirTerminal:SingleDuct:VAV:Reheat = STORAGE_2_Z18_VAVTERMINAL
   ** Warning ** Since Damper Heating Action = NORMAL, input for Maximum Flow per Zone Floor Area During Reheat will be ignored.
   **   ~~~   ** Occurs in AirTerminal:SingleDuct:VAV:Reheat = LOBBY_3_Z19_VAVTERMINAL
   ** Warning ** Since Damper Heating Action = NORMAL, input for Maximum Flow Fraction During Reheat will be ignored.
   **   ~~~   ** Occurs in AirTerminal:SingleDuct:VAV:Reheat = LOBBY_3_Z19_VAVTERMINAL
   ** Warning ** Since Damper Heating Action = NORMAL, input for Maximum Flow per Zone Floor Area During Reheat will be ignored.
   **   ~~~   ** Occurs in AirTerminal:SingleDuct:VAV:Reheat = CONFERENCE_3_Z20_VAVTERMINAL
   ** Warning ** Since Damper Heating Action = NORMAL, input for Maximum Flow Fraction During Reheat will be ignored.
   **   ~~~   ** Occurs in AirTerminal:SingleDuct:VAV:Reheat = CONFERENCE_3_Z20_VAVTERMINAL
   ** Warning ** Since Damper Heating Action = NORMAL, input for Maximum Flow per Zone Floor Area During Reheat will be ignored.
   **   ~~~   ** Occurs in AirTerminal:SingleDuct:VAV:Reheat = BREAK_ROOM_3_Z21_VAVTERMINAL
   ** Warning ** Since Damper Heating Action = NORMAL, input for Maximum Flow Fraction During Reheat will be ignored.
   **   ~~~   ** Occurs in AirTerminal:SingleDuct:VAV:Reheat = BREAK_ROOM_3_Z21_VAVTERMINAL
   ** Warning ** Since Damper Heating Action = NORMAL, input for Maximum Flow per Zone Floor Area During Reheat will be ignored.
   **   ~~~   ** Occurs in AirTerminal:SingleDuct:VAV:Reheat = MECHANICAL_3_Z22_VAVTERMINAL
   ** Warning ** Since Damper Heating Action = NORMAL, input for Maximum Flow Fraction During Reheat will be ignored.
   **   ~~~   ** Occurs in AirTerminal:SingleDuct:VAV:Reheat = MECHANICAL_3_Z22_VAVTERMINAL
   ** Warning ** Since Damper Heating Action = NORMAL, input for Maximum Flow per Zone Floor Area During Reheat will be ignored.
   **   ~~~   ** Occurs in AirTerminal:SingleDuct:VAV:Reheat = OFFICE_OPEN_3_Z23_VAVTERMINAL
   ** Warning ** Since Damper Heating Action = NORMAL, input for Maximum Flow Fraction During Reheat will be ignored.
   **   ~~~   ** Occurs in AirTerminal:SingleDuct:VAV:Reheat = OFFICE_OPEN_3_Z23_VAVTERMINAL
   ** Warning ** Since Damper Heating Action = NORMAL, input for Maximum Flow per Zone Floor Area During Reheat will be ignored.
   **   ~~~   ** Occurs in AirTerminal:SingleDuct:VAV:Reheat = OFFICE_PRIVATE_3_Z24_VAVTERMINAL
   ** Warning ** Since Damper Heating Action = NORMAL, input for Maximum Flow Fraction During Reheat will be ignored.
   **   ~~~   ** Occurs in AirTerminal:SingleDuct:VAV:Reheat = OFFICE_PRIVATE_3_Z24_VAVTERMINAL
   ** Warning ** Since Damper Heating Action = NORMAL, input for Maximum Flow per Zone Floor Area During Reheat will be ignored.
   **   ~~~   ** Occurs in AirTerminal:SingleDuct:VAV:Reheat = LOBBY_4_Z25_VAVTERMINAL
   ** Warning ** Since Damper Heating Action = NORMAL, input for Maximum Flow Fraction During Reheat will be ignored.
   **   ~~~   ** Occurs in AirTerminal:SingleDuct:VAV:Reheat = LOBBY_4_Z25_VAVTERMINAL
   ** Warning ** Since Damper Heating Action = NORMAL, input for Maximum Flow per Zone Floor Area During Reheat will be ignored.
   **   ~~~   ** Occurs in AirTerminal:SingleDuct:VAV:Reheat = CONFERENCE_4_Z26_VAVTERMINAL
   ** Warning ** Since Damper Heating Action = NORMAL, input for Maximum Flow Fraction During Reheat will be ignored.
   **   ~~~   ** Occurs in AirTerminal:SingleDuct:VAV:Reheat = CONFERENCE_4_Z26_VAVTERMINAL
   ** Warning ** Since Damper Heating Action = NORMAL, input for Maximum Flow per Zone Floor Area During Reheat will be ignored.
   **   ~~~   ** Occurs in AirTerminal:SingleDuct:VAV:Reheat = MECHANICAL_4_Z27_VAVTERMINAL
   ** Warning ** Since Damper Heating Action = NORMAL, input for Maximum Flow Fraction During Reheat will be ignored.
   **   ~~~   ** Occurs in AirTerminal:SingleDuct:VAV:Reheat = MECHANICAL_4_Z27_VAVTERMINAL
   ** Warning ** Since Damper Heating Action = NORMAL, input for Maximum Flow per Zone Floor Area During Reheat will be ignored.
   **   ~~~   ** Occurs in AirTerminal:SingleDuct:VAV:Reheat = OFFICE_OPEN_4_Z28_VAVTERMINAL
   ** Warning ** Since Damper Heating Action = NORMAL, input for Maximum Flow Fraction During Reheat will be ignored.
   **   ~~~   ** Occurs in AirTerminal:SingleDuct:VAV:Reheat = OFFICE_OPEN_4_Z28_VAVTERMINAL
   ** Warning ** Since Damper Heating Action = NORMAL, input for Maximum Flow per Zone Floor Area During Reheat will be ignored.
   **   ~~~   ** Occurs in AirTerminal:SingleDuct:VAV:Reheat = OFFICE_PRIVATE_4_Z29_VAVTERMINAL
   ** Warning ** Since Damper Heating Action = NORMAL, input for Maximum Flow Fraction During Reheat will be ignored.
   **   ~~~   ** Occurs in AirTerminal:SingleDuct:VAV:Reheat = OFFICE_PRIVATE_4_Z29_VAVTERMINAL
   ** Warning ** Since Damper Heating Action = NORMAL, input for Maximum Flow per Zone Floor Area During Reheat will be ignored.
   **   ~~~   ** Occurs in AirTerminal:SingleDuct:VAV:Reheat = STORAGE_4_Z30_VAVTERMINAL
   ** Warning ** Since Damper Heating Action = NORMAL, input for Maximum Flow Fraction During Reheat will be ignored.
   **   ~~~   ** Occurs in AirTerminal:SingleDuct:VAV:Reheat = STORAGE_4_Z30_VAVTERMINAL
   ** Warning ** GetDXCoils: Coil:Cooling:DX:SingleSpeed="CONFERENCE_0_Z1_COOLINGCOILDX" curve values
   **   ~~~   ** ... Energy Input Ratio Function of Temperature Curve Name = COOL-EIR-FT output is not equal to 1.0 (+ or - 10%) at rated conditions.
   **   ~~~   ** ... Curve output at rated conditions = -3.341E-002
   ** Warning ** GetDXCoils: Coil:Cooling:DX:SingleSpeed="BREAK_ROOM_0_Z2_COOLINGCOILDX" curve values
   **   ~~~   ** ... Energy Input Ratio Function of Temperature Curve Name = COOL-EIR-FT output is not equal to 1.0 (+ or - 10%) at rated conditions.
   **   ~~~   ** ... Curve output at rated conditions = -3.341E-002
   ** Warning ** GetDXCoils: Coil:Cooling:DX:SingleSpeed="MECHANICAL_0_Z3_COOLINGCOILDX" curve values
   **   ~~~   ** ... Energy Input Ratio Function of Temperature Curve Name = COOL-EIR-FT output is not equal to 1.0 (+ or - 10%) at rated conditions.
   **   ~~~   ** ... Curve output at rated conditions = -3.341E-002
   ** Warning ** GetDXCoils: Coil:Cooling:DX:SingleSpeed="OFFICE_OPEN_0_Z4_COOLINGCOILDX" curve values
   **   ~~~   ** ... Energy Input Ratio Function of Temperature Curve Name = COOL-EIR-FT output is not equal to 1.0 (+ or - 10%) at rated conditions.
   **   ~~~   ** ... Curve output at rated conditions = -3.341E-002
   ** Warning ** GetDXCoils: Coil:Cooling:DX:SingleSpeed="OFFICE_PRIVATE_0_Z5_COOLINGCOILDX" curve values
   **   ~~~   ** ... Energy Input Ratio Function of Temperature Curve Name = COOL-EIR-FT output is not equal to 1.0 (+ or - 10%) at rated conditions.
   **   ~~~   ** ... Curve output at rated conditions = -3.341E-002
   ** Warning ** GetDXCoils: Coil:Cooling:DX:SingleSpeed="STORAGE_0_Z6_COOLINGCOILDX" curve values
   **   ~~~   ** ... Energy Input Ratio Function of Temperature Curve Name = COOL-EIR-FT output is not equal to 1.0 (+ or - 10%) at rated conditions.
   **   ~~~   ** ... Curve output at rated conditions = -3.341E-002
   ** Warning ** GetDXCoils: Coil:Cooling:DX:SingleSpeed="LOBBY_1_Z7_COOLINGCOILDX" curve values
   **   ~~~   ** ... Energy Input Ratio Function of Temperature Curve Name = COOL-EIR-FT output is not equal to 1.0 (+ or - 10%) at rated conditions.
   **   ~~~   ** ... Curve output at rated conditions = -3.341E-002
   ** Warning ** GetDXCoils: Coil:Cooling:DX:SingleSpeed="BREAK_ROOM_1_Z8_COOLINGCOILDX" curve values
   **   ~~~   ** ... Energy Input Ratio Function of Temperature Curve Name = COOL-EIR-FT output is not equal to 1.0 (+ or - 10%) at rated conditions.
   **   ~~~   ** ... Curve output at rated conditions = -3.341E-002
   ** Warning ** GetDXCoils: Coil:Cooling:DX:SingleSpeed="OFFICE_OPEN_1_Z9_COOLINGCOILDX" curve values
   **   ~~~   ** ... Energy Input Ratio Function of Temperature Curve Name = COOL-EIR-FT output is not equal to 1.0 (+ or - 10%) at rated conditions.
   **   ~~~   ** ... Curve output at rated conditions = -3.341E-002
   ** Warning ** GetDXCoils: Coil:Cooling:DX:SingleSpeed="OFFICE_PRIVATE_1_Z10_COOLINGCOILDX" curve values
   **   ~~~   ** ... Energy Input Ratio Function of Temperature Curve Name = COOL-EIR-FT output is not equal to 1.0 (+ or - 10%) at rated conditions.
   **   ~~~   ** ... Curve output at rated conditions = -3.341E-002
   ** Warning ** GetDXCoils: Coil:Cooling:DX:SingleSpeed="STORAGE_1_Z11_COOLINGCOILDX" curve values
   **   ~~~   ** ... Energy Input Ratio Function of Temperature Curve Name = COOL-EIR-FT output is not equal to 1.0 (+ or - 10%) at rated conditions.
   **   ~~~   ** ... Curve output at rated conditions = -3.341E-002
   ** Warning ** GetDXCoils: Coil:Cooling:DX:SingleSpeed="LOBBY_2_Z12_COOLINGCOILDX" curve values
   **   ~~~   ** ... Energy Input Ratio Function of Temperature Curve Name = COOL-EIR-FT output is not equal to 1.0 (+ or - 10%) at rated conditions.
   **   ~~~   ** ... Curve output at rated conditions = -3.341E-002
   ** Warning ** GetDXCoils: Coil:Cooling:DX:SingleSpeed="CONFERENCE_2_Z13_COOLINGCOILDX" curve values
   **   ~~~   ** ... Energy Input Ratio Function of Temperature Curve Name = COOL-EIR-FT output is not equal to 1.0 (+ or - 10%) at rated conditions.
   **   ~~~   ** ... Curve output at rated conditions = -3.341E-002
   ** Warning ** GetDXCoils: Coil:Cooling:DX:SingleSpeed="BREAK_ROOM_2_Z14_COOLINGCOILDX" curve values
   **   ~~~   ** ... Energy Input Ratio Function of Temperature Curve Name = COOL-EIR-FT output is not equal to 1.0 (+ or - 10%) at rated conditions.
   **   ~~~   ** ... Curve output at rated conditions = -3.341E-002
   ** Warning ** GetDXCoils: Coil:Cooling:DX:SingleSpeed="MECHANICAL_2_Z15_COOLINGCOILDX" curve values
   **   ~~~   ** ... Energy Input Ratio Function of Temperature Curve Name = COOL-EIR-FT output is not equal to 1.0 (+ or - 10%) at rated conditions.
   **   ~~~   ** ... Curve output at rated conditions = -3.341E-002
   ** Warning ** GetDXCoils: Coil:Cooling:DX:SingleSpeed="OFFICE_OPEN_2_Z16_COOLINGCOILDX" curve values
   **   ~~~   ** ... Energy Input Ratio Function of Temperature Curve Name = COOL-EIR-FT output is not equal to 1.0 (+ or - 10%) at rated conditions.
   **   ~~~   ** ... Curve output at rated conditions = -3.341E-002
   ** Warning ** GetDXCoils: Coil:Cooling:DX:SingleSpeed="OFFICE_PRIVATE_2_Z17_COOLINGCOILDX" curve values
   **   ~~~   ** ... Energy Input Ratio Function of Temperature Curve Name = COOL-EIR-FT output is not equal to 1.0 (+ or - 10%) at rated conditions.
   **   ~~~   ** ... Curve output at rated conditions = -3.341E-002
   ** Warning ** GetDXCoils: Coil:Cooling:DX:SingleSpeed="STORAGE_2_Z18_COOLINGCOILDX" curve values
   **   ~~~   ** ... Energy Input Ratio Function of Temperature Curve Name = COOL-EIR-FT output is not equal to 1.0 (+ or - 10%) at rated conditions.
   **   ~~~   ** ... Curve output at rated conditions = -3.341E-002
   ** Warning ** GetDXCoils: Coil:Cooling:DX:SingleSpeed="LOBBY_3_Z19_COOLINGCOILDX" curve values
   **   ~~~   ** ... Energy Input Ratio Function of Temperature Curve Name = COOL-EIR-FT output is not equal to 1.0 (+ or - 10%) at rated conditions.
   **   ~~~   ** ... Curve output at rated conditions = -3.341E-002
   ** Warning ** GetDXCoils: Coil:Cooling:DX:SingleSpeed="CONFERENCE_3_Z20_COOLINGCOILDX" curve values
   **   ~~~   ** ... Energy Input Ratio Function of Temperature Curve Name = COOL-EIR-FT output is not equal to 1.0 (+ or - 10%) at rated conditions.
   **   ~~~   ** ... Curve output at rated conditions = -3.341E-002
   ** Warning ** GetDXCoils: Coil:Cooling:DX:SingleSpeed="BREAK_ROOM_3_Z21_COOLINGCOILDX" curve values
   **   ~~~   ** ... Energy Input Ratio Function of Temperature Curve Name = COOL-EIR-FT output is not equal to 1.0 (+ or - 10%) at rated conditions.
   **   ~~~   ** ... Curve output at rated conditions = -3.341E-002
   ** Warning ** GetDXCoils: Coil:Cooling:DX:SingleSpeed="MECHANICAL_3_Z22_COOLINGCOILDX" curve values
   **   ~~~   ** ... Energy Input Ratio Function of Temperature Curve Name = COOL-EIR-FT output is not equal to 1.0 (+ or - 10%) at rated conditions.
   **   ~~~   ** ... Curve output at rated conditions = -3.341E-002
   ** Warning ** GetDXCoils: Coil:Cooling:DX:SingleSpeed="OFFICE_OPEN_3_Z23_COOLINGCOILDX" curve values
   **   ~~~   ** ... Energy Input Ratio Function of Temperature Curve Name = COOL-EIR-FT output is not equal to 1.0 (+ or - 10%) at rated conditions.
   **   ~~~   ** ... Curve output at rated conditions = -3.341E-002
   ** Warning ** GetDXCoils: Coil:Cooling:DX:SingleSpeed="OFFICE_PRIVATE_3_Z24_COOLINGCOILDX" curve values
   **   ~~~   ** ... Energy Input Ratio Function of Temperature Curve Name = COOL-EIR-FT output is not equal to 1.0 (+ or - 10%) at rated conditions.
   **   ~~~   ** ... Curve output at rated conditions = -3.341E-002
   ** Warning ** GetDXCoils: Coil:Cooling:DX:SingleSpeed="LOBBY_4_Z25_COOLINGCOILDX" curve values
   **   ~~~   ** ... Energy Input Ratio Function of Temperature Curve Name = COOL-EIR-FT output is not equal to 1.0 (+ or - 10%) at rated conditions.
   **   ~~~   ** ... Curve output at rated conditions = -3.341E-002
   ** Warning ** GetDXCoils: Coil:Cooling:DX:SingleSpeed="CONFERENCE_4_Z26_COOLINGCOILDX" curve values
   **   ~~~   ** ... Energy Input Ratio Function of Temperature Curve Name = COOL-EIR-FT output is not equal to 1.0 (+ or - 10%) at rated conditions.
   **   ~~~   ** ... Curve output at rated conditions = -3.341E-002
   ** Warning ** GetDXCoils: Coil:Cooling:DX:SingleSpeed="MECHANICAL_4_Z27_COOLINGCOILDX" curve values
   **   ~~~   ** ... Energy Input Ratio Function of Temperature Curve Name = COOL-EIR-FT output is not equal to 1.0 (+ or - 10%) at rated conditions.
   **   ~~~   ** ... Curve output at rated conditions = -3.341E-002
   ** Warning ** GetDXCoils: Coil:Cooling:DX:SingleSpeed="OFFICE_OPEN_4_Z28_COOLINGCOILDX" curve values
   **   ~~~   ** ... Energy Input Ratio Function of Temperature Curve Name = COOL-EIR-FT output is not equal to 1.0 (+ or - 10%) at rated conditions.
   **   ~~~   ** ... Curve output at rated conditions = -3.341E-002
   ** Warning ** GetDXCoils: Coil:Cooling:DX:SingleSpeed="OFFICE_PRIVATE_4_Z29_COOLINGCOILDX" curve values
   **   ~~~   ** ... Energy Input Ratio Function of Temperature Curve Name = COOL-EIR-FT output is not equal to 1.0 (+ or - 10%) at rated conditions.
   **   ~~~   ** ... Curve output at rated conditions = -3.341E-002
   ** Warning ** GetDXCoils: Coil:Cooling:DX:SingleSpeed="STORAGE_4_Z30_COOLINGCOILDX" curve values
   **   ~~~   ** ... Energy Input Ratio Function of Temperature Curve Name = COOL-EIR-FT output is not equal to 1.0 (+ or - 10%) at rated conditions.
   **   ~~~   ** ... Curve output at rated conditions = -3.341E-002
   ** Warning ** CalcDoe2DXCoil: Coil:Cooling:DX:SingleSpeed="CONFERENCE_0_Z1_COOLINGCOILDX":
   **   ~~~   **  Energy Input Ratio Modifier curve (function of temperature) output is negative (-3.334E-002).
   **   ~~~   **  Negative value occurs using a condenser inlet air temperature of 35.0 and an inlet air wet-bulb temperature of 19.4.
   **   ~~~   **  Resetting curve output to zero and continuing simulation.
   **   ~~~   **  During Warmup, Environment=YEAR ROUND RUN PERIOD, at Simulation time=01/01 00:00 - 00:15
   ** Warning ** CalcDoe2DXCoil: Coil:Cooling:DX:SingleSpeed="BREAK_ROOM_0_Z2_COOLINGCOILDX":
   **   ~~~   **  Energy Input Ratio Modifier curve (function of temperature) output is negative (-3.334E-002).
   **   ~~~   **  Negative value occurs using a condenser inlet air temperature of 35.0 and an inlet air wet-bulb temperature of 19.4.
   **   ~~~   **  Resetting curve output to zero and continuing simulation.
   **   ~~~   **  During Warmup, Environment=YEAR ROUND RUN PERIOD, at Simulation time=01/01 00:00 - 00:15
   ** Warning ** CalcDoe2DXCoil: Coil:Cooling:DX:SingleSpeed="MECHANICAL_0_Z3_COOLINGCOILDX":
   **   ~~~   **  Energy Input Ratio Modifier curve (function of temperature) output is negative (-3.334E-002).
   **   ~~~   **  Negative value occurs using a condenser inlet air temperature of 35.0 and an inlet air wet-bulb temperature of 19.4.
   **   ~~~   **  Resetting curve output to zero and continuing simulation.
   **   ~~~   **  During Warmup, Environment=YEAR ROUND RUN PERIOD, at Simulation time=01/01 00:00 - 00:15
   ** Warning ** CalcDoe2DXCoil: Coil:Cooling:DX:SingleSpeed="OFFICE_OPEN_0_Z4_COOLINGCOILDX":
   **   ~~~   **  Energy Input Ratio Modifier curve (function of temperature) output is negative (-3.334E-002).
   **   ~~~   **  Negative value occurs using a condenser inlet air temperature of 35.0 and an inlet air wet-bulb temperature of 19.4.
   **   ~~~   **  Resetting curve output to zero and continuing simulation.
   **   ~~~   **  During Warmup, Environment=YEAR ROUND RUN PERIOD, at Simulation time=01/01 00:00 - 00:15
   ** Warning ** CalcDoe2DXCoil: Coil:Cooling:DX:SingleSpeed="OFFICE_PRIVATE_0_Z5_COOLINGCOILDX":
   **   ~~~   **  Energy Input Ratio Modifier curve (function of temperature) output is negative (-3.334E-002).
   **   ~~~   **  Negative value occurs using a condenser inlet air temperature of 35.0 and an inlet air wet-bulb temperature of 19.4.
   **   ~~~   **  Resetting curve output to zero and continuing simulation.
   **   ~~~   **  During Warmup, Environment=YEAR ROUND RUN PERIOD, at Simulation time=01/01 00:00 - 00:15
   ** Warning ** CalcDoe2DXCoil: Coil:Cooling:DX:SingleSpeed="STORAGE_0_Z6_COOLINGCOILDX":
   **   ~~~   **  Energy Input Ratio Modifier curve (function of temperature) output is negative (-3.334E-002).
   **   ~~~   **  Negative value occurs using a condenser inlet air temperature of 35.0 and an inlet air wet-bulb temperature of 19.4.
   **   ~~~   **  Resetting curve output to zero and continuing simulation.
   **   ~~~   **  During Warmup, Environment=YEAR ROUND RUN PERIOD, at Simulation time=01/01 00:00 - 00:15
   ** Warning ** CalcDoe2DXCoil: Coil:Cooling:DX:SingleSpeed="LOBBY_1_Z7_COOLINGCOILDX":
   **   ~~~   **  Energy Input Ratio Modifier curve (function of temperature) output is negative (-3.334E-002).
   **   ~~~   **  Negative value occurs using a condenser inlet air temperature of 35.0 and an inlet air wet-bulb temperature of 19.4.
   **   ~~~   **  Resetting curve output to zero and continuing simulation.
   **   ~~~   **  During Warmup, Environment=YEAR ROUND RUN PERIOD, at Simulation time=01/01 00:00 - 00:15
   ** Warning ** CalcDoe2DXCoil: Coil:Cooling:DX:SingleSpeed="BREAK_ROOM_1_Z8_COOLINGCOILDX":
   **   ~~~   **  Energy Input Ratio Modifier curve (function of temperature) output is negative (-3.334E-002).
   **   ~~~   **  Negative value occurs using a condenser inlet air temperature of 35.0 and an inlet air wet-bulb temperature of 19.4.
   **   ~~~   **  Resetting curve output to zero and continuing simulation.
   **   ~~~   **  During Warmup, Environment=YEAR ROUND RUN PERIOD, at Simulation time=01/01 00:00 - 00:15
   ** Warning ** CalcDoe2DXCoil: Coil:Cooling:DX:SingleSpeed="OFFICE_OPEN_1_Z9_COOLINGCOILDX":
   **   ~~~   **  Energy Input Ratio Modifier curve (function of temperature) output is negative (-3.334E-002).
   **   ~~~   **  Negative value occurs using a condenser inlet air temperature of 35.0 and an inlet air wet-bulb temperature of 19.4.
   **   ~~~   **  Resetting curve output to zero and continuing simulation.
   **   ~~~   **  During Warmup, Environment=YEAR ROUND RUN PERIOD, at Simulation time=01/01 00:00 - 00:15
   ** Warning ** CalcDoe2DXCoil: Coil:Cooling:DX:SingleSpeed="OFFICE_PRIVATE_1_Z10_COOLINGCOILDX":
   **   ~~~   **  Energy Input Ratio Modifier curve (function of temperature) output is negative (-3.334E-002).
   **   ~~~   **  Negative value occurs using a condenser inlet air temperature of 35.0 and an inlet air wet-bulb temperature of 19.4.
   **   ~~~   **  Resetting curve output to zero and continuing simulation.
   **   ~~~   **  During Warmup, Environment=YEAR ROUND RUN PERIOD, at Simulation time=01/01 00:00 - 00:15
   ** Warning ** CalcDoe2DXCoil: Coil:Cooling:DX:SingleSpeed="STORAGE_1_Z11_COOLINGCOILDX":
   **   ~~~   **  Energy Input Ratio Modifier curve (function of temperature) output is negative (-3.334E-002).
   **   ~~~   **  Negative value occurs using a condenser inlet air temperature of 35.0 and an inlet air wet-bulb temperature of 19.4.
   **   ~~~   **  Resetting curve output to zero and continuing simulation.
   **   ~~~   **  During Warmup, Environment=YEAR ROUND RUN PERIOD, at Simulation time=01/01 00:00 - 00:15
   ** Warning ** CalcDoe2DXCoil: Coil:Cooling:DX:SingleSpeed="LOBBY_2_Z12_COOLINGCOILDX":
   **   ~~~   **  Energy Input Ratio Modifier curve (function of temperature) output is negative (-3.334E-002).
   **   ~~~   **  Negative value occurs using a condenser inlet air temperature of 35.0 and an inlet air wet-bulb temperature of 19.4.
   **   ~~~   **  Resetting curve output to zero and continuing simulation.
   **   ~~~   **  During Warmup, Environment=YEAR ROUND RUN PERIOD, at Simulation time=01/01 00:00 - 00:15
   ** Warning ** CalcDoe2DXCoil: Coil:Cooling:DX:SingleSpeed="CONFERENCE_2_Z13_COOLINGCOILDX":
   **   ~~~   **  Energy Input Ratio Modifier curve (function of temperature) output is negative (-3.334E-002).
   **   ~~~   **  Negative value occurs using a condenser inlet air temperature of 35.0 and an inlet air wet-bulb temperature of 19.4.
   **   ~~~   **  Resetting curve output to zero and continuing simulation.
   **   ~~~   **  During Warmup, Environment=YEAR ROUND RUN PERIOD, at Simulation time=01/01 00:00 - 00:15
   ** Warning ** CalcDoe2DXCoil: Coil:Cooling:DX:SingleSpeed="BREAK_ROOM_2_Z14_COOLINGCOILDX":
   **   ~~~   **  Energy Input Ratio Modifier curve (function of temperature) output is negative (-3.334E-002).
   **   ~~~   **  Negative value occurs using a condenser inlet air temperature of 35.0 and an inlet air wet-bulb temperature of 19.4.
   **   ~~~   **  Resetting curve output to zero and continuing simulation.
   **   ~~~   **  During Warmup, Environment=YEAR ROUND RUN PERIOD, at Simulation time=01/01 00:00 - 00:15
   ** Warning ** CalcDoe2DXCoil: Coil:Cooling:DX:SingleSpeed="MECHANICAL_2_Z15_COOLINGCOILDX":
   **   ~~~   **  Energy Input Ratio Modifier curve (function of temperature) output is negative (-3.334E-002).
   **   ~~~   **  Negative value occurs using a condenser inlet air temperature of 35.0 and an inlet air wet-bulb temperature of 19.4.
   **   ~~~   **  Resetting curve output to zero and continuing simulation.
   **   ~~~   **  During Warmup, Environment=YEAR ROUND RUN PERIOD, at Simulation time=01/01 00:00 - 00:15
   ** Warning ** CalcDoe2DXCoil: Coil:Cooling:DX:SingleSpeed="OFFICE_OPEN_2_Z16_COOLINGCOILDX":
   **   ~~~   **  Energy Input Ratio Modifier curve (function of temperature) output is negative (-3.334E-002).
   **   ~~~   **  Negative value occurs using a condenser inlet air temperature of 35.0 and an inlet air wet-bulb temperature of 19.4.
   **   ~~~   **  Resetting curve output to zero and continuing simulation.
   **   ~~~   **  During Warmup, Environment=YEAR ROUND RUN PERIOD, at Simulation time=01/01 00:00 - 00:15
   ** Warning ** CalcDoe2DXCoil: Coil:Cooling:DX:SingleSpeed="OFFICE_PRIVATE_2_Z17_COOLINGCOILDX":
   **   ~~~   **  Energy Input Ratio Modifier curve (function of temperature) output is negative (-3.334E-002).
   **   ~~~   **  Negative value occurs using a condenser inlet air temperature of 35.0 and an inlet air wet-bulb temperature of 19.4.
   **   ~~~   **  Resetting curve output to zero and continuing simulation.
   **   ~~~   **  During Warmup, Environment=YEAR ROUND RUN PERIOD, at Simulation time=01/01 00:00 - 00:15
   ** Warning ** CalcDoe2DXCoil: Coil:Cooling:DX:SingleSpeed="STORAGE_2_Z18_COOLINGCOILDX":
   **   ~~~   **  Energy Input Ratio Modifier curve (function of temperature) output is negative (-3.334E-002).
   **   ~~~   **  Negative value occurs using a condenser inlet air temperature of 35.0 and an inlet air wet-bulb temperature of 19.4.
   **   ~~~   **  Resetting curve output to zero and continuing simulation.
   **   ~~~   **  During Warmup, Environment=YEAR ROUND RUN PERIOD, at Simulation time=01/01 00:00 - 00:15
   ** Warning ** CalcDoe2DXCoil: Coil:Cooling:DX:SingleSpeed="LOBBY_3_Z19_COOLINGCOILDX":
   **   ~~~   **  Energy Input Ratio Modifier curve (function of temperature) output is negative (-3.334E-002).
   **   ~~~   **  Negative value occurs using a condenser inlet air temperature of 35.0 and an inlet air wet-bulb temperature of 19.4.
   **   ~~~   **  Resetting curve output to zero and continuing simulation.
   **   ~~~   **  During Warmup, Environment=YEAR ROUND RUN PERIOD, at Simulation time=01/01 00:00 - 00:15
   ** Warning ** CalcDoe2DXCoil: Coil:Cooling:DX:SingleSpeed="CONFERENCE_3_Z20_COOLINGCOILDX":
   **   ~~~   **  Energy Input Ratio Modifier curve (function of temperature) output is negative (-3.334E-002).
   **   ~~~   **  Negative value occurs using a condenser inlet air temperature of 35.0 and an inlet air wet-bulb temperature of 19.4.
   **   ~~~   **  Resetting curve output to zero and continuing simulation.
   **   ~~~   **  During Warmup, Environment=YEAR ROUND RUN PERIOD, at Simulation time=01/01 00:00 - 00:15
   ** Warning ** CalcDoe2DXCoil: Coil:Cooling:DX:SingleSpeed="BREAK_ROOM_3_Z21_COOLINGCOILDX":
   **   ~~~   **  Energy Input Ratio Modifier curve (function of temperature) output is negative (-3.334E-002).
   **   ~~~   **  Negative value occurs using a condenser inlet air temperature of 35.0 and an inlet air wet-bulb temperature of 19.4.
   **   ~~~   **  Resetting curve output to zero and continuing simulation.
   **   ~~~   **  During Warmup, Environment=YEAR ROUND RUN PERIOD, at Simulation time=01/01 00:00 - 00:15
   ** Warning ** CalcDoe2DXCoil: Coil:Cooling:DX:SingleSpeed="MECHANICAL_3_Z22_COOLINGCOILDX":
   **   ~~~   **  Energy Input Ratio Modifier curve (function of temperature) output is negative (-3.334E-002).
   **   ~~~   **  Negative value occurs using a condenser inlet air temperature of 35.0 and an inlet air wet-bulb temperature of 19.4.
   **   ~~~   **  Resetting curve output to zero and continuing simulation.
   **   ~~~   **  During Warmup, Environment=YEAR ROUND RUN PERIOD, at Simulation time=01/01 00:00 - 00:15
   ** Warning ** CalcDoe2DXCoil: Coil:Cooling:DX:SingleSpeed="OFFICE_OPEN_3_Z23_COOLINGCOILDX":
   **   ~~~   **  Energy Input Ratio Modifier curve (function of temperature) output is negative (-3.334E-002).
   **   ~~~   **  Negative value occurs using a condenser inlet air temperature of 35.0 and an inlet air wet-bulb temperature of 19.4.
   **   ~~~   **  Resetting curve output to zero and continuing simulation.
   **   ~~~   **  During Warmup, Environment=YEAR ROUND RUN PERIOD, at Simulation time=01/01 00:00 - 00:15
   ** Warning ** CalcDoe2DXCoil: Coil:Cooling:DX:SingleSpeed="OFFICE_PRIVATE_3_Z24_COOLINGCOILDX":
   **   ~~~   **  Energy Input Ratio Modifier curve (function of temperature) output is negative (-3.334E-002).
   **   ~~~   **  Negative value occurs using a condenser inlet air temperature of 35.0 and an inlet air wet-bulb temperature of 19.4.
   **   ~~~   **  Resetting curve output to zero and continuing simulation.
   **   ~~~   **  During Warmup, Environment=YEAR ROUND RUN PERIOD, at Simulation time=01/01 00:00 - 00:15
   ** Warning ** CalcDoe2DXCoil: Coil:Cooling:DX:SingleSpeed="LOBBY_4_Z25_COOLINGCOILDX":
   **   ~~~   **  Energy Input Ratio Modifier curve (function of temperature) output is negative (-3.334E-002).
   **   ~~~   **  Negative value occurs using a condenser inlet air temperature of 35.0 and an inlet air wet-bulb temperature of 19.4.
   **   ~~~   **  Resetting curve output to zero and continuing simulation.
   **   ~~~   **  During Warmup, Environment=YEAR ROUND RUN PERIOD, at Simulation time=01/01 00:00 - 00:15
   ** Warning ** CalcDoe2DXCoil: Coil:Cooling:DX:SingleSpeed="CONFERENCE_4_Z26_COOLINGCOILDX":
   **   ~~~   **  Energy Input Ratio Modifier curve (function of temperature) output is negative (-3.334E-002).
   **   ~~~   **  Negative value occurs using a condenser inlet air temperature of 35.0 and an inlet air wet-bulb temperature of 19.4.
   **   ~~~   **  Resetting curve output to zero and continuing simulation.
   **   ~~~   **  During Warmup, Environment=YEAR ROUND RUN PERIOD, at Simulation time=01/01 00:00 - 00:15
   ** Warning ** CalcDoe2DXCoil: Coil:Cooling:DX:SingleSpeed="MECHANICAL_4_Z27_COOLINGCOILDX":
   **   ~~~   **  Energy Input Ratio Modifier curve (function of temperature) output is negative (-3.334E-002).
   **   ~~~   **  Negative value occurs using a condenser inlet air temperature of 35.0 and an inlet air wet-bulb temperature of 19.4.
   **   ~~~   **  Resetting curve output to zero and continuing simulation.
   **   ~~~   **  During Warmup, Environment=YEAR ROUND RUN PERIOD, at Simulation time=01/01 00:00 - 00:15
   ** Warning ** CalcDoe2DXCoil: Coil:Cooling:DX:SingleSpeed="OFFICE_OPEN_4_Z28_COOLINGCOILDX":
   **   ~~~   **  Energy Input Ratio Modifier curve (function of temperature) output is negative (-3.334E-002).
   **   ~~~   **  Negative value occurs using a condenser inlet air temperature of 35.0 and an inlet air wet-bulb temperature of 19.4.
   **   ~~~   **  Resetting curve output to zero and continuing simulation.
   **   ~~~   **  During Warmup, Environment=YEAR ROUND RUN PERIOD, at Simulation time=01/01 00:00 - 00:15
   ** Warning ** CalcDoe2DXCoil: Coil:Cooling:DX:SingleSpeed="OFFICE_PRIVATE_4_Z29_COOLINGCOILDX":
   **   ~~~   **  Energy Input Ratio Modifier curve (function of temperature) output is negative (-3.334E-002).
   **   ~~~   **  Negative value occurs using a condenser inlet air temperature of 35.0 and an inlet air wet-bulb temperature of 19.4.
   **   ~~~   **  Resetting curve output to zero and continuing simulation.
   **   ~~~   **  During Warmup, Environment=YEAR ROUND RUN PERIOD, at Simulation time=01/01 00:00 - 00:15
   ** Warning ** CalcDoe2DXCoil: Coil:Cooling:DX:SingleSpeed="STORAGE_4_Z30_COOLINGCOILDX":
   **   ~~~   **  Energy Input Ratio Modifier curve (function of temperature) output is negative (-3.334E-002).
   **   ~~~   **  Negative value occurs using a condenser inlet air temperature of 35.0 and an inlet air wet-bulb temperature of 19.4.
   **   ~~~   **  Resetting curve output to zero and continuing simulation.
   **   ~~~   **  During Warmup, Environment=YEAR ROUND RUN PERIOD, at Simulation time=01/01 00:00 - 00:15
   ************* Testing Individual Branch Integrity
   ************* All Branches passed integrity testing
   ************* Testing Individual Supply Air Path Integrity
   ************* All Supply Air Paths passed integrity testing
   ************* Testing Individual Return Air Path Integrity
   ************* All Return Air Paths passed integrity testing
   ************* No node connection errors were found.
   ************* Beginning Simulation
   ** Warning ** CalcDoe2DXCoil: Coil:Cooling:DX:SingleSpeed="STORAGE_0_Z6_COOLINGCOILDX" - Air volume flow rate per watt of rated total cooling capacity is out of range at 1.030E-005 m3/s/W.
   **   ~~~   **  Environment=YEAR ROUND RUN PERIOD, at Simulation time=02/09 14:38 - 14:45
   **   ~~~   ** Expected range for VolumeFlowPerRatedTotalCapacity=[2.684E-005--6.713E-005]
   **   ~~~   ** Possible causes include inconsistent air flow rates in system components,
   **   ~~~   ** or variable air volume [VAV] system using incorrect coil type.
   ** Warning ** CalcDoe2DXCoil: Coil:Cooling:DX:SingleSpeed "STORAGE_0_Z6_COOLINGCOILDX" - Full load outlet air dry-bulb temperature < 2C. This indicates the possibility of coil frost/freeze. Outlet temperature = -44.89 C.
   **   ~~~   **  ...Occurrence info = YEAR ROUND RUN PERIOD, 02/09 14:38 - 14:45
   **   ~~~   ** ... Possible reasons for low outlet air dry-bulb temperatures are: This DX coil
   **   ~~~   **    1) may have a low inlet air dry-bulb temperature. Inlet air temperature = 24.188 C.
   **   ~~~   **    2) may have a low air flow rate per watt of cooling capacity. Check inputs.
   **   ~~~   **    3) is used as part of a HX assisted cooling coil which uses a high sensible effectiveness. Check inputs.
   ** Warning ** CalcDoe2DXCoil: Coil:Cooling:DX:SingleSpeed="BREAK_ROOM_3_Z21_COOLINGCOILDX" - Air volume flow rate per watt of rated total cooling capacity is out of range at 1.040E-005 m3/s/W.
   **   ~~~   **  Environment=YEAR ROUND RUN PERIOD, at Simulation time=02/10 13:20 - 13:25
   **   ~~~   ** Expected range for VolumeFlowPerRatedTotalCapacity=[2.684E-005--6.713E-005]
   **   ~~~   ** Possible causes include inconsistent air flow rates in system components,
   **   ~~~   ** or variable air volume [VAV] system using incorrect coil type.
   ** Warning ** CalcDoe2DXCoil: Coil:Cooling:DX:SingleSpeed "BREAK_ROOM_3_Z21_COOLINGCOILDX" - Full load outlet air dry-bulb temperature < 2C. This indicates the possibility of coil frost/freeze. Outlet temperature = -43.16 C.
   **   ~~~   **  ...Occurrence info = YEAR ROUND RUN PERIOD, 02/10 13:20 - 13:25
   **   ~~~   ** ... Possible reasons for low outlet air dry-bulb temperatures are: This DX coil
   **   ~~~   **    1) may have a low inlet air dry-bulb temperature. Inlet air temperature = 24.145 C.
   **   ~~~   **    2) may have a low air flow rate per watt of cooling capacity. Check inputs.
   **   ~~~   **    3) is used as part of a HX assisted cooling coil which uses a high sensible effectiveness. Check inputs.
   ** Warning ** CalcDoe2DXCoil: Coil:Cooling:DX:SingleSpeed="BREAK_ROOM_0_Z2_COOLINGCOILDX" - Air volume flow rate per watt of rated total cooling capacity is out of range at 1.042E-005 m3/s/W.
   **   ~~~   **  Environment=YEAR ROUND RUN PERIOD, at Simulation time=02/10 13:30 - 13:45
   **   ~~~   ** Expected range for VolumeFlowPerRatedTotalCapacity=[2.684E-005--6.713E-005]
   **   ~~~   ** Possible causes include inconsistent air flow rates in system components,
   **   ~~~   ** or variable air volume [VAV] system using incorrect coil type.
   ** Warning ** CalcDoe2DXCoil: Coil:Cooling:DX:SingleSpeed "BREAK_ROOM_0_Z2_COOLINGCOILDX" - Full load outlet air dry-bulb temperature < 2C. This indicates the possibility of coil frost/freeze. Outlet temperature = -42.25 C.
   **   ~~~   **  ...Occurrence info = YEAR ROUND RUN PERIOD, 02/10 13:35 - 13:40
   **   ~~~   ** ... Possible reasons for low outlet air dry-bulb temperatures are: This DX coil
   **   ~~~   **    1) may have a low inlet air dry-bulb temperature. Inlet air temperature = 24.236 C.
   **   ~~~   **    2) may have a low air flow rate per watt of cooling capacity. Check inputs.
   **   ~~~   **    3) is used as part of a HX assisted cooling coil which uses a high sensible effectiveness. Check inputs.
   ** Warning ** CalcDoe2DXCoil: Coil:Cooling:DX:SingleSpeed="CONFERENCE_4_Z26_COOLINGCOILDX" - Air volume flow rate per watt of rated total cooling capacity is out of range at 1.043E-005 m3/s/W.
   **   ~~~   **  Environment=YEAR ROUND RUN PERIOD, at Simulation time=02/10 14:00 - 14:15
   **   ~~~   ** Expected range for VolumeFlowPerRatedTotalCapacity=[2.684E-005--6.713E-005]
   **   ~~~   ** Possible causes include inconsistent air flow rates in system components,
   **   ~~~   ** or variable air volume [VAV] system using incorrect coil type.
   ** Warning ** CalcDoe2DXCoil: Coil:Cooling:DX:SingleSpeed="OFFICE_PRIVATE_4_Z29_COOLINGCOILDX" - Air volume flow rate per watt of rated total cooling capacity is out of range at 1.043E-005 m3/s/W.
   **   ~~~   **  Environment=YEAR ROUND RUN PERIOD, at Simulation time=02/10 14:00 - 14:15
   **   ~~~   ** Expected range for VolumeFlowPerRatedTotalCapacity=[2.684E-005--6.713E-005]
   **   ~~~   ** Possible causes include inconsistent air flow rates in system components,
   **   ~~~   ** or variable air volume [VAV] system using incorrect coil type.
   ** Warning ** CalcDoe2DXCoil: Coil:Cooling:DX:SingleSpeed "CONFERENCE_4_Z26_COOLINGCOILDX" - Full load outlet air dry-bulb temperature < 2C. This indicates the possibility of coil frost/freeze. Outlet temperature = -41.86 C.
   **   ~~~   **  ...Occurrence info = YEAR ROUND RUN PERIOD, 02/10 14:00 - 14:08
   **   ~~~   ** ... Possible reasons for low outlet air dry-bulb temperatures are: This DX coil
   **   ~~~   **    1) may have a low inlet air dry-bulb temperature. Inlet air temperature = 24.115 C.
   **   ~~~   **    2) may have a low air flow rate per watt of cooling capacity. Check inputs.
   **   ~~~   **    3) is used as part of a HX assisted cooling coil which uses a high sensible effectiveness. Check inputs.
   ** Warning ** CalcDoe2DXCoil: Coil:Cooling:DX:SingleSpeed "OFFICE_PRIVATE_4_Z29_COOLINGCOILDX" - Full load outlet air dry-bulb temperature < 2C. This indicates the possibility of coil frost/freeze. Outlet temperature = -41.84 C.
   **   ~~~   **  ...Occurrence info = YEAR ROUND RUN PERIOD, 02/10 14:00 - 14:08
   **   ~~~   ** ... Possible reasons for low outlet air dry-bulb temperatures are: This DX coil
   **   ~~~   **    1) may have a low inlet air dry-bulb temperature. Inlet air temperature = 24.124 C.
   **   ~~~   **    2) may have a low air flow rate per watt of cooling capacity. Check inputs.
   **   ~~~   **    3) is used as part of a HX assisted cooling coil which uses a high sensible effectiveness. Check inputs.
   ** Warning ** CalcDoe2DXCoil: Coil:Cooling:DX:SingleSpeed="OFFICE_PRIVATE_3_Z24_COOLINGCOILDX" - Air volume flow rate per watt of rated total cooling capacity is out of range at 1.043E-005 m3/s/W.
   **   ~~~   **  Environment=YEAR ROUND RUN PERIOD, at Simulation time=02/10 14:08 - 14:15
   **   ~~~   ** Expected range for VolumeFlowPerRatedTotalCapacity=[2.684E-005--6.713E-005]
   **   ~~~   ** Possible causes include inconsistent air flow rates in system components,
   **   ~~~   ** or variable air volume [VAV] system using incorrect coil type.
   ** Warning ** CalcDoe2DXCoil: Coil:Cooling:DX:SingleSpeed "OFFICE_PRIVATE_3_Z24_COOLINGCOILDX" - Full load outlet air dry-bulb temperature < 2C. This indicates the possibility of coil frost/freeze. Outlet temperature = -41.59 C.
   **   ~~~   **  ...Occurrence info = YEAR ROUND RUN PERIOD, 02/10 14:08 - 14:15
   **   ~~~   ** ... Possible reasons for low outlet air dry-bulb temperatures are: This DX coil
   **   ~~~   **    1) may have a low inlet air dry-bulb temperature. Inlet air temperature = 24.183 C.
   **   ~~~   **    2) may have a low air flow rate per watt of cooling capacity. Check inputs.
   **   ~~~   **    3) is used as part of a HX assisted cooling coil which uses a high sensible effectiveness. Check inputs.
   ** Warning ** CalcDoe2DXCoil: Coil:Cooling:DX:SingleSpeed="CONFERENCE_0_Z1_COOLINGCOILDX" - Air volume flow rate per watt of rated total cooling capacity is out of range at 1.043E-005 m3/s/W.
   **   ~~~   **  Environment=YEAR ROUND RUN PERIOD, at Simulation time=02/10 14:15 - 14:30
   **   ~~~   ** Expected range for VolumeFlowPerRatedTotalCapacity=[2.684E-005--6.713E-005]
   **   ~~~   ** Possible causes include inconsistent air flow rates in system components,
   **   ~~~   ** or variable air volume [VAV] system using incorrect coil type.
   ** Warning ** CalcDoe2DXCoil: Coil:Cooling:DX:SingleSpeed="STORAGE_1_Z11_COOLINGCOILDX" - Air volume flow rate per watt of rated total cooling capacity is out of range at 1.032E-005 m3/s/W.
   **   ~~~   **  Environment=YEAR ROUND RUN PERIOD, at Simulation time=02/10 14:23 - 14:30
   **   ~~~   ** Expected range for VolumeFlowPerRatedTotalCapacity=[2.684E-005--6.713E-005]
   **   ~~~   ** Possible causes include inconsistent air flow rates in system components,
   **   ~~~   ** or variable air volume [VAV] system using incorrect coil type.
   ** Warning ** CalcDoe2DXCoil: Coil:Cooling:DX:SingleSpeed="CONFERENCE_2_Z13_COOLINGCOILDX" - Air volume flow rate per watt of rated total cooling capacity is out of range at 1.043E-005 m3/s/W.
   **   ~~~   **  Environment=YEAR ROUND RUN PERIOD, at Simulation time=02/10 14:23 - 14:30
   **   ~~~   ** Expected range for VolumeFlowPerRatedTotalCapacity=[2.684E-005--6.713E-005]
   **   ~~~   ** Possible causes include inconsistent air flow rates in system components,
   **   ~~~   ** or variable air volume [VAV] system using incorrect coil type.
   ** Warning ** CalcDoe2DXCoil: Coil:Cooling:DX:SingleSpeed="BREAK_ROOM_2_Z14_COOLINGCOILDX" - Air volume flow rate per watt of rated total cooling capacity is out of range at 1.043E-005 m3/s/W.
   **   ~~~   **  Environment=YEAR ROUND RUN PERIOD, at Simulation time=02/10 14:23 - 14:30
   **   ~~~   ** Expected range for VolumeFlowPerRatedTotalCapacity=[2.684E-005--6.713E-005]
   **   ~~~   ** Possible causes include inconsistent air flow rates in system components,
   **   ~~~   ** or variable air volume [VAV] system using incorrect coil type.
   ** Warning ** CalcDoe2DXCoil: Coil:Cooling:DX:SingleSpeed="CONFERENCE_3_Z20_COOLINGCOILDX" - Air volume flow rate per watt of rated total cooling capacity is out of range at 1.043E-005 m3/s/W.
   **   ~~~   **  Environment=YEAR ROUND RUN PERIOD, at Simulation time=02/10 14:23 - 14:30
   **   ~~~   ** Expected range for VolumeFlowPerRatedTotalCapacity=[2.684E-005--6.713E-005]
   **   ~~~   ** Possible causes include inconsistent air flow rates in system components,
   **   ~~~   ** or variable air volume [VAV] system using incorrect coil type.
   ** Warning ** CalcDoe2DXCoil: Coil:Cooling:DX:SingleSpeed "CONFERENCE_0_Z1_COOLINGCOILDX" - Full load outlet air dry-bulb temperature < 2C. This indicates the possibility of coil frost/freeze. Outlet temperature = -41.35 C.
[...]
   *************
   *************  ** Warning ** CalcDoe2DXCoil: Coil:Cooling:DX:SingleSpeed="LOBBY_4_Z25_COOLINGCOILDX" - Air volume flow rate per watt of rated total cooling capacity is out of range error continues...
   *************  **   ~~~   **   This error occurred 102828 total times;
   *************  **   ~~~   **   during Warmup 0 times;
   *************  **   ~~~   **   during Sizing 0 times.
   *************  **   ~~~   **   Max=0.000011  Min=0.000010
   *************
   *************  ** Warning ** CalcDoe2DXCoil: Coil:Cooling:DX:SingleSpeed="LOBBY_1_Z7_COOLINGCOILDX" - Full load outlet temperature indicates a possibility of frost/freeze error continues. Outlet air temperature statistics follow:
   *************  **   ~~~   **   This error occurred 39953 total times;
   *************  **   ~~~   **   during Warmup 0 times;
   *************  **   ~~~   **   during Sizing 0 times.
   *************  **   ~~~   **   Max=-30.109058  Min=-46.689597
   *************
   *************  ** Warning ** CalcDoe2DXCoil: Coil:Cooling:DX:SingleSpeed="LOBBY_4_Z25_COOLINGCOILDX" - Full load outlet temperature indicates a possibility of frost/freeze error continues. Outlet air temperature statistics follow:
   *************  **   ~~~   **   This error occurred 39763 total times;
   *************  **   ~~~   **   during Warmup 0 times;
   *************  **   ~~~   **   during Sizing 0 times.
   *************  **   ~~~   **   Max=-30.116155  Min=-46.684976
   *************
   *************  ** Warning ** CalcDoe2DXCoil: Coil:Cooling:DX:SingleSpeed="LOBBY_3_Z19_COOLINGCOILDX" - Air volume flow rate per watt of rated total cooling capacity is out of range error continues...
   *************  **   ~~~   **   This error occurred 103232 total times;
   *************  **   ~~~   **   during Warmup 0 times;
   *************  **   ~~~   **   during Sizing 0 times.
   *************  **   ~~~   **   Max=0.000011  Min=0.000010
   *************
   *************  ** Warning ** CalcDoe2DXCoil: Coil:Cooling:DX:SingleSpeed="LOBBY_3_Z19_COOLINGCOILDX" - Full load outlet temperature indicates a possibility of frost/freeze error continues. Outlet air temperature statistics follow:
   *************  **   ~~~   **   This error occurred 39932 total times;
   *************  **   ~~~   **   during Warmup 0 times;
   *************  **   ~~~   **   during Sizing 0 times.
   *************  **   ~~~   **   Max=-30.100779  Min=-46.654117
   *************
   *************  ** Warning ** CalcDoe2DXCoil: Coil:Cooling:DX:SingleSpeed="OFFICE_OPEN_2_Z16_COOLINGCOILDX" - Air volume flow rate per watt of rated total cooling capacity is out of range error continues...
   *************  **   ~~~   **   This error occurred 107556 total times;
   *************  **   ~~~   **   during Warmup 0 times;
   *************  **   ~~~   **   during Sizing 0 times.
   *************  **   ~~~   **   Max=0.000011  Min=0.000010
   *************
   *************  ** Warning ** CalcDoe2DXCoil: Coil:Cooling:DX:SingleSpeed="OFFICE_OPEN_2_Z16_COOLINGCOILDX" - Full load outlet temperature indicates a possibility of frost/freeze error continues. Outlet air temperature statistics follow:
   *************  **   ~~~   **   This error occurred 41759 total times;
   *************  **   ~~~   **   during Warmup 0 times;
   *************  **   ~~~   **   during Sizing 0 times.
   *************  **   ~~~   **   Max=-27.032415  Min=-48.372423
   *************
   *************  ** Warning ** CalcDoe2DXCoil: Coil:Cooling:DX:SingleSpeed="MECHANICAL_3_Z22_COOLINGCOILDX" - Air volume flow rate per watt of rated total cooling capacity is out of range error continues...
   *************  **   ~~~   **   This error occurred 97170 total times;
   *************  **   ~~~   **   during Warmup 0 times;
   *************  **   ~~~   **   during Sizing 0 times.
   *************  **   ~~~   **   Max=0.000011  Min=0.000010
   *************
   *************  ** Warning ** CalcDoe2DXCoil: Coil:Cooling:DX:SingleSpeed="MECHANICAL_3_Z22_COOLINGCOILDX" - Full load outlet temperature indicates a possibility of frost/freeze error continues. Outlet air temperature statistics follow:
   *************  **   ~~~   **   This error occurred 37477 total times;
   *************  **   ~~~   **   during Warmup 0 times;
   *************  **   ~~~   **   during Sizing 0 times.
   *************  **   ~~~   **   Max=-30.315855  Min=-54.799643
   *************
   *************  ** Warning ** CalcDoe2DXCoil: Coil:Cooling:DX:SingleSpeed="LOBBY_2_Z12_COOLINGCOILDX" - Air volume flow rate per watt of rated total cooling capacity is out of range error continues...
   *************  **   ~~~   **   This error occurred 102064 total times;
   *************  **   ~~~   **   during Warmup 0 times;
   *************  **   ~~~   **   during Sizing 0 times.
   *************  **   ~~~   **   Max=0.000011  Min=0.000010
   *************
   *************  ** Warning ** CalcDoe2DXCoil: Coil:Cooling:DX:SingleSpeed="LOBBY_2_Z12_COOLINGCOILDX" - Full load outlet temperature indicates a possibility of frost/freeze error continues. Outlet air temperature statistics follow:
   *************  **   ~~~   **   This error occurred 39450 total times;
   *************  **   ~~~   **   during Warmup 0 times;
   *************  **   ~~~   **   during Sizing 0 times.
   *************  **   ~~~   **   Max=-30.086879  Min=-46.696866
   *************
   *************  ** Warning ** CalcDoe2DXCoil: Coil:Cooling:DX:SingleSpeed="MECHANICAL_2_Z15_COOLINGCOILDX" - Air volume flow rate per watt of rated total cooling capacity is out of range error continues...
   *************  **   ~~~   **   This error occurred 96208 total times;
   *************  **   ~~~   **   during Warmup 0 times;
   *************  **   ~~~   **   during Sizing 0 times.
   *************  **   ~~~   **   Max=0.000011  Min=0.000010
   *************
   *************  ** Warning ** CalcDoe2DXCoil: Coil:Cooling:DX:SingleSpeed="MECHANICAL_2_Z15_COOLINGCOILDX" - Full load outlet temperature indicates a possibility of frost/freeze error continues. Outlet air temperature statistics follow:
   *************  **   ~~~   **   This error occurred 37092 total times;
   *************  **   ~~~   **   during Warmup 0 times;
   *************  **   ~~~   **   during Sizing 0 times.
   *************  **   ~~~   **   Max=-30.369071  Min=-54.929002
   *************
   *************  ** Warning ** CalcDoe2DXCoil: Coil:Cooling:DX:SingleSpeed="MECHANICAL_0_Z3_COOLINGCOILDX" - Air volume flow rate per watt of rated total cooling capacity is out of range error continues...
   *************  **   ~~~   **   This error occurred 94912 total times;
   *************  **   ~~~   **   during Warmup 0 times;
   *************  **   ~~~   **   during Sizing 0 times.
   *************  **   ~~~   **   Max=0.000011  Min=0.000010
   *************
   *************  ** Warning ** CalcDoe2DXCoil: Coil:Cooling:DX:SingleSpeed="MECHANICAL_0_Z3_COOLINGCOILDX" - Full load outlet temperature indicates a possibility of frost/freeze error continues. Outlet air temperature statistics follow:
   *************  **   ~~~   **   This error occurred 36600 total times;
   *************  **   ~~~   **   during Warmup 0 times;
   *************  **   ~~~   **   during Sizing 0 times.
   *************  **   ~~~   **   Max=-30.338827  Min=-54.788498
   *************
   *************  ** Warning ** CalcDoe2DXCoil: Coil:Cooling:DX:SingleSpeed="CONFERENCE_0_Z1_COOLINGCOILDX" - Low condenser dry-bulb temperature error continues...
   *************  **   ~~~   **   This error occurred 64 total times;
   *************  **   ~~~   **   during Warmup 0 times;
   *************  **   ~~~   **   during Sizing 0 times.
   *************  **   ~~~   **   Max=-0.425000 [C]  Min=-3.600000 [C]
   *************
   *************  ** Warning ** CalcDoe2DXCoil: Coil:Cooling:DX:SingleSpeed="MECHANICAL_0_Z3_COOLINGCOILDX" - Low condenser dry-bulb temperature error continues...
   *************  **   ~~~   **   This error occurred 17 total times;
   *************  **   ~~~   **   during Warmup 0 times;
   *************  **   ~~~   **   during Sizing 0 times.
   *************  **   ~~~   **   Max=-0.425000 [C]  Min=-2.200000 [C]
   *************
   *************  ** Warning ** CalcDoe2DXCoil: Coil:Cooling:DX:SingleSpeed="OFFICE_OPEN_0_Z4_COOLINGCOILDX" - Low condenser dry-bulb temperature error continues...
   *************  **   ~~~   **   This error occurred 75 total times;
   *************  **   ~~~   **   during Warmup 0 times;
   *************  **   ~~~   **   during Sizing 0 times.
   *************  **   ~~~   **   Max=-0.300000 [C]  Min=-3.900000 [C]
   *************
   *************  ** Warning ** CalcDoe2DXCoil: Coil:Cooling:DX:SingleSpeed="LOBBY_1_Z7_COOLINGCOILDX" - Low condenser dry-bulb temperature error continues...
   *************  **   ~~~   **   This error occurred 53 total times;
   *************  **   ~~~   **   during Warmup 0 times;
   *************  **   ~~~   **   during Sizing 0 times.
   *************  **   ~~~   **   Max=-0.425000 [C]  Min=-3.300000 [C]
   *************
   *************  ** Warning ** CalcDoe2DXCoil: Coil:Cooling:DX:SingleSpeed="BREAK_ROOM_1_Z8_COOLINGCOILDX" - Low condenser dry-bulb temperature error continues...
   *************  **   ~~~   **   This error occurred 58 total times;
   *************  **   ~~~   **   during Warmup 0 times;
   *************  **   ~~~   **   during Sizing 0 times.
   *************  **   ~~~   **   Max=-0.025000 [C]  Min=-3.450000 [C]
   *************
   *************  ** Warning ** CalcDoe2DXCoil: Coil:Cooling:DX:SingleSpeed="OFFICE_OPEN_1_Z9_COOLINGCOILDX" - Low condenser dry-bulb temperature error continues...
   *************  **   ~~~   **   This error occurred 61 total times;
   *************  **   ~~~   **   during Warmup 0 times;
   *************  **   ~~~   **   during Sizing 0 times.
   *************  **   ~~~   **   Max=-0.425000 [C]  Min=-3.600000 [C]
   *************
   *************  ** Warning ** CalcDoe2DXCoil: Coil:Cooling:DX:SingleSpeed="OFFICE_PRIVATE_1_Z10_COOLINGCOILDX" - Low condenser dry-bulb temperature error continues...
   *************  **   ~~~   **   This error occurred 14 total times;
   *************  **   ~~~   **   during Warmup 0 times;
   *************  **   ~~~   **   during Sizing 0 times.
   *************  **   ~~~   **   Max=-0.425000 [C]  Min=-1.275000 [C]
   *************
   *************  ** Warning ** CalcDoe2DXCoil: Coil:Cooling:DX:SingleSpeed="STORAGE_1_Z11_COOLINGCOILDX" - Low condenser dry-bulb temperature error continues...
   *************  **   ~~~   **   This error occurred 7 total times;
   *************  **   ~~~   **   during Warmup 0 times;
   *************  **   ~~~   **   during Sizing 0 times.
   *************  **   ~~~   **   Max=-0.425000 [C]  Min=-1.100000 [C]
   *************
   *************  ** Warning ** CalcDoe2DXCoil: Coil:Cooling:DX:SingleSpeed="LOBBY_2_Z12_COOLINGCOILDX" - Low condenser dry-bulb temperature error continues...
   *************  **   ~~~   **   This error occurred 43 total times;
   *************  **   ~~~   **   during Warmup 0 times;
   *************  **   ~~~   **   during Sizing 0 times.
   *************  **   ~~~   **   Max=-0.425000 [C]  Min=-3.025000 [C]
   *************
   *************  ** Warning ** CalcDoe2DXCoil: Coil:Cooling:DX:SingleSpeed="CONFERENCE_2_Z13_COOLINGCOILDX" - Low condenser dry-bulb temperature error continues...
   *************  **   ~~~   **   This error occurred 60 total times;
   *************  **   ~~~   **   during Warmup 0 times;
   *************  **   ~~~   **   during Sizing 0 times.
   *************  **   ~~~   **   Max=-0.425000 [C]  Min=-3.450000 [C]
   *************
   *************  ** Warning ** CalcDoe2DXCoil: Coil:Cooling:DX:SingleSpeed="BREAK_ROOM_2_Z14_COOLINGCOILDX" - Low condenser dry-bulb temperature error continues...
   *************  **   ~~~   **   This error occurred 59 total times;
   *************  **   ~~~   **   during Warmup 0 times;
   *************  **   ~~~   **   during Sizing 0 times.
   *************  **   ~~~   **   Max=-0.025000 [C]  Min=-3.450000 [C]
   *************
   *************  ** Warning ** CalcDoe2DXCoil: Coil:Cooling:DX:SingleSpeed="MECHANICAL_2_Z15_COOLINGCOILDX" - Low condenser dry-bulb temperature error continues...
   *************  **   ~~~   **   This error occurred 19 total times;
   *************  **   ~~~   **   during Warmup 0 times;
   *************  **   ~~~   **   during Sizing 0 times.
   *************  **   ~~~   **   Max=-0.425000 [C]  Min=-2.200000 [C]
   *************
   *************  ** Warning ** CalcDoe2DXCoil: Coil:Cooling:DX:SingleSpeed="OFFICE_OPEN_2_Z16_COOLINGCOILDX" - Low condenser dry-bulb temperature error continues...
   *************  **   ~~~   **   This error occurred 65 total times;
   *************  **   ~~~   **   during Warmup 0 times;
   *************  **   ~~~   **   during Sizing 0 times.
   *************  **   ~~~   **   Max=-0.300000 [C]  Min=-3.600000 [C]
   *************
   *************  ** Warning ** CalcDoe2DXCoil: Coil:Cooling:DX:SingleSpeed="OFFICE_PRIVATE_2_Z17_COOLINGCOILDX" - Low condenser dry-bulb temperature error continues...
   *************  **   ~~~   **   This error occurred 11 total times;
   *************  **   ~~~   **   during Warmup 0 times;
   *************  **   ~~~   **   during Sizing 0 times.
   *************  **   ~~~   **   Max=-0.425000 [C]  Min=-1.100000 [C]
   *************
   *************  ** Warning ** CalcDoe2DXCoil: Coil:Cooling:DX:SingleSpeed="STORAGE_2_Z18_COOLINGCOILDX" - Low condenser dry-bulb temperature error continues...
   *************  **   ~~~   **   This error occurred 2 total times;
   *************  **   ~~~   **   during Warmup 0 times;
   *************  **   ~~~   **   during Sizing 0 times.
   *************  **   ~~~   **   Max=-0.550000 [C]  Min=-0.550000 [C]
   *************
   *************  ** Warning ** CalcDoe2DXCoil: Coil:Cooling:DX:SingleSpeed="LOBBY_3_Z19_COOLINGCOILDX" - Low condenser dry-bulb temperature error continues...
   *************  **   ~~~   **   This error occurred 54 total times;
   *************  **   ~~~   **   during Warmup 0 times;
   *************  **   ~~~   **   during Sizing 0 times.
   *************  **   ~~~   **   Max=-0.425000 [C]  Min=-3.300000 [C]
   *************
   *************  ** Warning ** CalcDoe2DXCoil: Coil:Cooling:DX:SingleSpeed="CONFERENCE_3_Z20_COOLINGCOILDX" - Low condenser dry-bulb temperature error continues...
   *************  **   ~~~   **   This error occurred 60 total times;
   *************  **   ~~~   **   during Warmup 0 times;
   *************  **   ~~~   **   during Sizing 0 times.
   *************  **   ~~~   **   Max=-0.425000 [C]  Min=-3.450000 [C]
   *************
   *************  ** Warning ** CalcDoe2DXCoil: Coil:Cooling:DX:SingleSpeed="MECHANICAL_3_Z22_COOLINGCOILDX" - Low condenser dry-bulb temperature error continues...
   *************  **   ~~~   **   This error occurred 21 total times;
   *************  **   ~~~   **   during Warmup 0 times;
   *************  **   ~~~   **   during Sizing 0 times.
   *************  **   ~~~   **   Max=-0.425000 [C]  Min=-2.200000 [C]
   *************
   *************  ** Warning ** CalcDoe2DXCoil: Coil:Cooling:DX:SingleSpeed="OFFICE_OPEN_3_Z23_COOLINGCOILDX" - Low condenser dry-bulb temperature error continues...
   *************  **   ~~~   **   This error occurred 59 total times;
   *************  **   ~~~   **   during Warmup 0 times;
   *************  **   ~~~   **   during Sizing 0 times.
   *************  **   ~~~   **   Max=-0.425000 [C]  Min=-3.450000 [C]
   *************
   *************  ** Warning ** CalcDoe2DXCoil: Coil:Cooling:DX:SingleSpeed="OFFICE_PRIVATE_3_Z24_COOLINGCOILDX" - Low condenser dry-bulb temperature error continues...
   *************  **   ~~~   **   This error occurred 49 total times;
   *************  **   ~~~   **   during Warmup 0 times;
   *************  **   ~~~   **   during Sizing 0 times.
   *************  **   ~~~   **   Max=-0.425000 [C]  Min=-3.025000 [C]
   *************
   *************  ** Warning ** CalcDoe2DXCoil: Coil:Cooling:DX:SingleSpeed="LOBBY_4_Z25_COOLINGCOILDX" - Low condenser dry-bulb temperature error continues...
   *************  **   ~~~   **   This error occurred 48 total times;
   *************  **   ~~~   **   during Warmup 0 times;
   *************  **   ~~~   **   during Sizing 0 times.
   *************  **   ~~~   **   Max=-0.425000 [C]  Min=-3.025000 [C]
   *************
   *************  ** Warning ** CalcDoe2DXCoil: Coil:Cooling:DX:SingleSpeed="CONFERENCE_4_Z26_COOLINGCOILDX" - Low condenser dry-bulb temperature error continues...
   *************  **   ~~~   **   This error occurred 58 total times;
   *************  **   ~~~   **   during Warmup 0 times;
   *************  **   ~~~   **   during Sizing 0 times.
   *************  **   ~~~   **   Max=-0.425000 [C]  Min=-3.450000 [C]
   *************
   *************  ** Warning ** CalcDoe2DXCoil: Coil:Cooling:DX:SingleSpeed="MECHANICAL_4_Z27_COOLINGCOILDX" - Low condenser dry-bulb temperature error continues...
   *************  **   ~~~   **   This error occurred 23 total times;
   *************  **   ~~~   **   during Warmup 0 times;
   *************  **   ~~~   **   during Sizing 0 times.
   *************  **   ~~~   **   Max=-0.425000 [C]  Min=-2.200000 [C]
   *************
   *************  ** Warning ** CalcDoe2DXCoil: Coil:Cooling:DX:SingleSpeed="OFFICE_OPEN_4_Z28_COOLINGCOILDX" - Low condenser dry-bulb temperature error continues...
   *************  **   ~~~   **   This error occurred 62 total times;
   *************  **   ~~~   **   during Warmup 0 times;
   *************  **   ~~~   **   during Sizing 0 times.
   *************  **   ~~~   **   Max=-0.425000 [C]  Min=-3.600000 [C]
   *************
   *************  ** Warning ** CalcDoe2DXCoil: Coil:Cooling:DX:SingleSpeed="OFFICE_PRIVATE_4_Z29_COOLINGCOILDX" - Low condenser dry-bulb temperature error continues...
   *************  **   ~~~   **   This error occurred 57 total times;
   *************  **   ~~~   **   during Warmup 0 times;
   *************  **   ~~~   **   during Sizing 0 times.
   *************  **   ~~~   **   Max=-0.025000 [C]  Min=-3.300000 [C]
   *************
   *************  ** Warning ** CalcDoe2DXCoil: Coil:Cooling:DX:SingleSpeed="STORAGE_4_Z30_COOLINGCOILDX" - Low condenser dry-bulb temperature error continues...
   *************  **   ~~~   **   This error occurred 32 total times;
   *************  **   ~~~   **   during Warmup 0 times;
   *************  **   ~~~   **   during Sizing 0 times.
   *************  **   ~~~   **   Max=-0.425000 [C]  Min=-2.475000 [C]
   *************
   *************  ** Warning ** CalcDoe2DXCoil: Coil:Cooling:DX:SingleSpeed="OFFICE_PRIVATE_0_Z5_COOLINGCOILDX" - Air volume flow rate per watt of rated total cooling capacity is out of range error continues...
   *************  **   ~~~   **   This error occurred 81934 total times;
   *************  **   ~~~   **   during Warmup 0 times;
   *************  **   ~~~   **   during Sizing 0 times.
   *************  **   ~~~   **   Max=0.000011  Min=0.000010
   *************
   *************  ** Warning ** CalcDoe2DXCoil: Coil:Cooling:DX:SingleSpeed="OFFICE_PRIVATE_0_Z5_COOLINGCOILDX" - Full load outlet temperature indicates a possibility of frost/freeze error continues. Outlet air temperature statistics follow:
   *************  **   ~~~   **   This error occurred 31468 total times;
   *************  **   ~~~   **   during Warmup 0 times;
   *************  **   ~~~   **   during Sizing 0 times.
   *************  **   ~~~   **   Max=-26.549711  Min=-50.322432
   *************
   ************* EnergyPlus Warmup Error Summary. During Warmup: 0 Warning; 0 Severe Errors.
   ************* EnergyPlus Sizing Error Summary. During Sizing: 0 Warning; 0 Severe Errors.
   ************* EnergyPlus Completed Successfully-- 4305047 Warning; 0 Severe Errors; Elapsed Time=00hr 01min 20.62sec
