Program Version,EnergyPlus, Version 24.2.0-94a887817b, YMD=2025.11.03 21:20,
   ** Severe  ** Line: 144 Index: 34 - "Insulation_Fiberglass_R20" is not a valid Object Type.
   ** Severe  ** Line: 145 Index: 25 - "Gypsum_Board_1_2" is not a valid Object Type.
   ** Severe  ** Line: 150 Index: 28 - "Roof_Insulation_R20" is not a valid Object Type.
   ** Severe  ** Line: 151 Index: 24 - "Concrete_Medium" is not a valid Object Type.
   ** Severe  ** Line: 156 Index: 24 - "Steel_Stud_25ga" is not a valid Object Type.
   ** Severe  ** Line: 157 Index: 34 - "Insulation_Fiberglass_R19" is not a valid Object Type.
   ** Severe  ** Line: 158 Index: 25 - "Gypsum_Board_1_2" is not a valid Object Type.
   ** Severe  ** Line: 530 Index: 9 - "-7.3008" is not a valid Object Type.
   ** Severe  ** Line: 531 Index: 9 - "-7.3008" is not a valid Object Type.
   ** Severe  ** Line: 532 Index: 10 - "-16.5632" is not a valid Object Type.
   ** Severe  ** Line: 549 Index: 9 - "-7.3008" is not a valid Object Type.
   ** Severe  ** Line: 550 Index: 9 - "-7.3008" is not a valid Object Type.
   ** Severe  ** Line: 551 Index: 10 - "-16.5632" is not a valid Object Type.
   ** Severe  ** Line: 568 Index: 9 - "-7.3008" is not a valid Object Type.
   ** Severe  ** Line: 569 Index: 9 - "-7.3008" is not a valid Object Type.
   ** Severe  ** Line: 570 Index: 10 - "-16.5632" is not a valid Object Type.
   ** Severe  ** Line: 587 Index: 9 - "-7.3008" is not a valid Object Type.
   ** Severe  ** Line: 588 Index: 9 - "-7.3008" is not a valid Object Type.
   ** Severe  ** Line: 589 Index: 9 - "-7.3008" is not a valid Object Type.
   ** Severe  ** Line: 606 Index: 10 - "-16.5632" is not a valid Object Type.
   ** Severe  ** Line: 607 Index: 10 - "-16.5632" is not a valid Object Type.
   ** Severe  ** Line: 608 Index: 9 - "-7.3008" is not a valid Object Type.
   ** Severe  ** Line: 625 Index: 10 - "-16.5632" is not a valid Object Type.
   ** Severe  ** Line: 626 Index: 10 - "-16.5632" is not a valid Object Type.
   ** Severe  ** Line: 627 Index: 10 - "-16.5632" is not a valid Object Type.
   ** Severe  ** Line: 644 Index: 9 - "-7.3251" is not a valid Object Type.
   ** Severe  ** Line: 645 Index: 9 - "-7.3251" is not a valid Object Type.
   ** Severe  ** Line: 646 Index: 10 - "-12.2517" is not a valid Object Type.
   ** Severe  ** Line: 663 Index: 9 - "-7.3251" is not a valid Object Type.
   ** Severe  ** Line: 664 Index: 9 - "-7.3251" is not a valid Object Type.
   ** Severe  ** Line: 665 Index: 10 - "-12.2517" is not a valid Object Type.
   ** Severe  ** Line: 682 Index: 9 - "-7.3251" is not a valid Object Type.
   ** Severe  ** Line: 683 Index: 9 - "-7.3251" is not a valid Object Type.
   ** Severe  ** Line: 684 Index: 10 - "-12.2517" is not a valid Object Type.
   ** Severe  ** Line: 701 Index: 9 - "-7.3251" is not a valid Object Type.
   ** Severe  ** Line: 702 Index: 9 - "-7.3251" is not a valid Object Type.
   ** Severe  ** Line: 703 Index: 9 - "-7.3251" is not a valid Object Type.
   ** Severe  ** Line: 720 Index: 10 - "-12.2517" is not a valid Object Type.
   ** Severe  ** Line: 721 Index: 10 - "-12.2517" is not a valid Object Type.
   ** Severe  ** Line: 722 Index: 9 - "-7.3251" is not a valid Object Type.
   ** Severe  ** Line: 739 Index: 10 - "-12.2517" is not a valid Object Type.
   ** Severe  ** Line: 740 Index: 10 - "-12.2517" is not a valid Object Type.
   ** Severe  ** Line: 741 Index: 10 - "-12.2517" is not a valid Object Type.
   ** Severe  ** Line: 758 Index: 9 - "-1.4973" is not a valid Object Type.
   ** Severe  ** Line: 759 Index: 9 - "-1.4973" is not a valid Object Type.
   ** Severe  ** Line: 760 Index: 9 - "-7.7469" is not a valid Object Type.
   ** Severe  ** Line: 777 Index: 9 - "-1.4973" is not a valid Object Type.
   ** Severe  ** Line: 778 Index: 9 - "-1.4973" is not a valid Object Type.
   ** Severe  ** Line: 779 Index: 9 - "-7.7469" is not a valid Object Type.
   ** Severe  ** Line: 796 Index: 9 - "-1.4973" is not a valid Object Type.
   ** Severe  ** Line: 797 Index: 9 - "-1.4973" is not a valid Object Type.
   ** Severe  ** Line: 798 Index: 9 - "-7.7469" is not a valid Object Type.
   ** Severe  ** Line: 815 Index: 9 - "-1.4973" is not a valid Object Type.
   ** Severe  ** Line: 816 Index: 9 - "-1.4973" is not a valid Object Type.
   ** Severe  ** Line: 817 Index: 9 - "-1.4973" is not a valid Object Type.
   ** Severe  ** Line: 834 Index: 9 - "-7.7469" is not a valid Object Type.
   ** Severe  ** Line: 835 Index: 9 - "-7.7469" is not a valid Object Type.
   ** Severe  ** Line: 836 Index: 9 - "-1.4973" is not a valid Object Type.
   ** Severe  ** Line: 853 Index: 9 - "-7.7469" is not a valid Object Type.
   ** Severe  ** Line: 854 Index: 9 - "-7.7469" is not a valid Object Type.
   ** Severe  ** Line: 855 Index: 9 - "-7.7469" is not a valid Object Type.
   ** Severe  ** Line: 872 Index: 9 - "-0.6097" is not a valid Object Type.
   ** Severe  ** Line: 873 Index: 9 - "-0.6097" is not a valid Object Type.
   ** Severe  ** Line: 874 Index: 9 - "-8.2581" is not a valid Object Type.
   ** Severe  ** Line: 891 Index: 9 - "-0.6097" is not a valid Object Type.
   ** Severe  ** Line: 892 Index: 9 - "-0.6097" is not a valid Object Type.
   ** Severe  ** Line: 893 Index: 9 - "-8.2581" is not a valid Object Type.
   ** Severe  ** Line: 910 Index: 9 - "-0.6097" is not a valid Object Type.
   ** Severe  ** Line: 911 Index: 9 - "-0.6097" is not a valid Object Type.
   ** Severe  ** Line: 912 Index: 9 - "-8.2581" is not a valid Object Type.
   ** Severe  ** Line: 929 Index: 9 - "-0.6097" is not a valid Object Type.
   ** Severe  ** Line: 930 Index: 9 - "-0.6097" is not a valid Object Type.
   ** Severe  ** Line: 931 Index: 9 - "-0.6097" is not a valid Object Type.
   ** Severe  ** Line: 948 Index: 9 - "-8.2581" is not a valid Object Type.
   ** Severe  ** Line: 949 Index: 9 - "-8.2581" is not a valid Object Type.
   ** Severe  ** Line: 950 Index: 9 - "-0.6097" is not a valid Object Type.
   ** Severe  ** Line: 967 Index: 9 - "-8.2581" is not a valid Object Type.
   ** Severe  ** Line: 968 Index: 9 - "-8.2581" is not a valid Object Type.
   ** Severe  ** Line: 969 Index: 9 - "-8.2581" is not a valid Object Type.
   ** Severe  ** Line: 986 Index: 9 - "10.0143" is not a valid Object Type.
   ** Severe  ** Line: 987 Index: 9 - "10.0143" is not a valid Object Type.
   ** Severe  ** Line: 988 Index: 8 - "0.6864" is not a valid Object Type.
   ** Severe  ** Line: 1005 Index: 9 - "10.0143" is not a valid Object Type.
   ** Severe  ** Line: 1006 Index: 9 - "10.0143" is not a valid Object Type.
   ** Severe  ** Line: 1007 Index: 8 - "0.6864" is not a valid Object Type.
   ** Severe  ** Line: 1024 Index: 9 - "10.0143" is not a valid Object Type.
   ** Severe  ** Line: 1025 Index: 9 - "10.0143" is not a valid Object Type.
   ** Severe  ** Line: 1026 Index: 8 - "0.6864" is not a valid Object Type.
   ** Severe  ** Line: 1043 Index: 9 - "10.0143" is not a valid Object Type.
   ** Severe  ** Line: 1044 Index: 9 - "10.0143" is not a valid Object Type.
   ** Severe  ** Line: 1045 Index: 9 - "10.0143" is not a valid Object Type.
   ** Severe  ** Line: 1062 Index: 8 - "0.6864" is not a valid Object Type.
   ** Severe  ** Line: 1063 Index: 8 - "0.6864" is not a valid Object Type.
   ** Severe  ** Line: 1064 Index: 9 - "10.0143" is not a valid Object Type.
   ** Severe  ** Line: 1081 Index: 8 - "0.6864" is not a valid Object Type.
   ** Severe  ** Line: 1082 Index: 8 - "0.6864" is not a valid Object Type.
   ** Severe  ** Line: 1083 Index: 8 - "0.6864" is not a valid Object Type.
   ** Severe  ** Line: 1100 Index: 8 - "9.3157" is not a valid Object Type.
   ** Severe  ** Line: 1101 Index: 8 - "9.3157" is not a valid Object Type.
   ** Severe  ** Line: 1102 Index: 8 - "3.8303" is not a valid Object Type.
   ** Severe  ** Line: 1119 Index: 8 - "9.3157" is not a valid Object Type.
   ** Severe  ** Line: 1120 Index: 8 - "9.3157" is not a valid Object Type.
   ** Severe  ** Line: 1121 Index: 8 - "3.8303" is not a valid Object Type.
   ** Severe  ** Line: 1138 Index: 8 - "9.3157" is not a valid Object Type.
   ** Severe  ** Line: 1139 Index: 8 - "9.3157" is not a valid Object Type.
   ** Severe  ** Line: 1140 Index: 8 - "3.8303" is not a valid Object Type.
   ** Severe  ** Line: 1157 Index: 8 - "9.3157" is not a valid Object Type.
   ** Severe  ** Line: 1158 Index: 8 - "9.3157" is not a valid Object Type.
   ** Severe  ** Line: 1159 Index: 8 - "9.3157" is not a valid Object Type.
   ** Severe  ** Line: 1176 Index: 8 - "3.8303" is not a valid Object Type.
   ** Severe  ** Line: 1177 Index: 8 - "3.8303" is not a valid Object Type.
   ** Severe  ** Line: 1178 Index: 8 - "9.3157" is not a valid Object Type.
   ** Severe  ** Line: 1195 Index: 8 - "3.8303" is not a valid Object Type.
   ** Severe  ** Line: 1196 Index: 8 - "3.8303" is not a valid Object Type.
   ** Severe  ** Line: 1197 Index: 8 - "3.8303" is not a valid Object Type.
   ** Severe  ** Line: 1214 Index: 9 - "12.5429" is not a valid Object Type.
   ** Severe  ** Line: 1215 Index: 9 - "12.5429" is not a valid Object Type.
   ** Severe  ** Line: 1216 Index: 8 - "7.8306" is not a valid Object Type.
   ** Severe  ** Line: 1233 Index: 9 - "12.5429" is not a valid Object Type.
   ** Severe  ** Line: 1234 Index: 9 - "12.5429" is not a valid Object Type.
   ** Severe  ** Line: 1235 Index: 8 - "7.8306" is not a valid Object Type.
   ** Severe  ** Line: 1252 Index: 9 - "12.5429" is not a valid Object Type.
   ** Severe  ** Line: 1253 Index: 9 - "12.5429" is not a valid Object Type.
   ** Severe  ** Line: 1254 Index: 8 - "7.8306" is not a valid Object Type.
   ** Severe  ** Line: 1271 Index: 9 - "12.5429" is not a valid Object Type.
   ** Severe  ** Line: 1272 Index: 9 - "12.5429" is not a valid Object Type.
   ** Severe  ** Line: 1273 Index: 9 - "12.5429" is not a valid Object Type.
   ** Severe  ** Line: 1290 Index: 8 - "7.8306" is not a valid Object Type.
   ** Severe  ** Line: 1291 Index: 8 - "7.8306" is not a valid Object Type.
   ** Severe  ** Line: 1292 Index: 9 - "12.5429" is not a valid Object Type.
   ** Severe  ** Line: 1309 Index: 8 - "7.8306" is not a valid Object Type.
   ** Severe  ** Line: 1310 Index: 8 - "7.8306" is not a valid Object Type.
   ** Severe  ** Line: 1311 Index: 8 - "7.8306" is not a valid Object Type.
   ** Severe  ** Line: 1328 Index: 9 - "-2.5155" is not a valid Object Type.
   ** Severe  ** Line: 1329 Index: 9 - "-2.5155" is not a valid Object Type.
   ** Severe  ** Line: 1330 Index: 10 - "-10.8913" is not a valid Object Type.
   ** Severe  ** Line: 1347 Index: 9 - "-2.5155" is not a valid Object Type.
   ** Severe  ** Line: 1348 Index: 9 - "-2.5155" is not a valid Object Type.
   ** Severe  ** Line: 1349 Index: 10 - "-10.8913" is not a valid Object Type.
   ** Severe  ** Line: 1366 Index: 9 - "-2.5155" is not a valid Object Type.
   ** Severe  ** Line: 1367 Index: 9 - "-2.5155" is not a valid Object Type.
   ** Severe  ** Line: 1368 Index: 10 - "-10.8913" is not a valid Object Type.
   ** Severe  ** Line: 1385 Index: 9 - "-2.5155" is not a valid Object Type.
   ** Severe  ** Line: 1386 Index: 9 - "-2.5155" is not a valid Object Type.
   ** Severe  ** Line: 1387 Index: 9 - "-2.5155" is not a valid Object Type.
   ** Severe  ** Line: 1404 Index: 10 - "-10.8913" is not a valid Object Type.
   ** Severe  ** Line: 1405 Index: 10 - "-10.8913" is not a valid Object Type.
   ** Severe  ** Line: 1406 Index: 9 - "-2.5155" is not a valid Object Type.
   ** Severe  ** Line: 1423 Index: 10 - "-10.8913" is not a valid Object Type.
   ** Severe  ** Line: 1424 Index: 10 - "-10.8913" is not a valid Object Type.
   ** Severe  ** Line: 1425 Index: 10 - "-10.8913" is not a valid Object Type.
   ** Severe  ** Line: 1442 Index: 8 - "0.4996" is not a valid Object Type.
   ** Severe  ** Line: 1443 Index: 8 - "0.4996" is not a valid Object Type.
   ** Severe  ** Line: 1444 Index: 9 - "-7.9697" is not a valid Object Type.
   ** Severe  ** Line: 1461 Index: 8 - "0.4996" is not a valid Object Type.
   ** Severe  ** Line: 1462 Index: 8 - "0.4996" is not a valid Object Type.
   ** Severe  ** Line: 1463 Index: 9 - "-7.9697" is not a valid Object Type.
   ** Severe  ** Line: 1480 Index: 8 - "0.4996" is not a valid Object Type.
   ** Severe  ** Line: 1481 Index: 8 - "0.4996" is not a valid Object Type.
   ** Severe  ** Line: 1482 Index: 9 - "-7.9697" is not a valid Object Type.
   ** Severe  ** Line: 1499 Index: 8 - "0.4996" is not a valid Object Type.
   ** Severe  ** Line: 1500 Index: 8 - "0.4996" is not a valid Object Type.
   ** Severe  ** Line: 1501 Index: 8 - "0.4996" is not a valid Object Type.
   ** Severe  ** Line: 1518 Index: 9 - "-7.9697" is not a valid Object Type.
   ** Severe  ** Line: 1519 Index: 9 - "-7.9697" is not a valid Object Type.
   ** Severe  ** Line: 1520 Index: 8 - "0.4996" is not a valid Object Type.
   ** Severe  ** Line: 1537 Index: 9 - "-7.9697" is not a valid Object Type.
   ** Severe  ** Line: 1538 Index: 9 - "-7.9697" is not a valid Object Type.
   ** Severe  ** Line: 1539 Index: 9 - "-7.9697" is not a valid Object Type.
   ** Severe  ** Line: 1556 Index: 9 - "17.7949" is not a valid Object Type.
   ** Severe  ** Line: 1557 Index: 9 - "17.7949" is not a valid Object Type.
   ** Severe  ** Line: 1558 Index: 9 - "12.1669" is not a valid Object Type.
   ** Severe  ** Line: 1575 Index: 9 - "17.7949" is not a valid Object Type.
   ** Severe  ** Line: 1576 Index: 9 - "17.7949" is not a valid Object Type.
   ** Severe  ** Line: 1577 Index: 9 - "12.1669" is not a valid Object Type.
   ** Severe  ** Line: 1594 Index: 9 - "17.7949" is not a valid Object Type.
   ** Severe  ** Line: 1595 Index: 9 - "17.7949" is not a valid Object Type.
   ** Severe  ** Line: 1596 Index: 9 - "12.1669" is not a valid Object Type.
   ** Severe  ** Line: 1613 Index: 9 - "17.7949" is not a valid Object Type.
   ** Severe  ** Line: 1614 Index: 9 - "17.7949" is not a valid Object Type.
   ** Severe  ** Line: 1615 Index: 9 - "17.7949" is not a valid Object Type.
   ** Severe  ** Line: 1632 Index: 9 - "12.1669" is not a valid Object Type.
   ** Severe  ** Line: 1633 Index: 9 - "12.1669" is not a valid Object Type.
   ** Severe  ** Line: 1634 Index: 9 - "17.7949" is not a valid Object Type.
   ** Severe  ** Line: 1651 Index: 9 - "12.1669" is not a valid Object Type.
   ** Severe  ** Line: 1652 Index: 9 - "12.1669" is not a valid Object Type.
   ** Severe  ** Line: 1653 Index: 9 - "12.1669" is not a valid Object Type.
   ** Severe  ** Line: 1670 Index: 10 - "-10.4853" is not a valid Object Type.
   ** Severe  ** Line: 1671 Index: 10 - "-10.4853" is not a valid Object Type.
   ** Severe  ** Line: 1672 Index: 10 - "-18.5734" is not a valid Object Type.
   ** Severe  ** Line: 1689 Index: 10 - "-10.4853" is not a valid Object Type.
   ** Severe  ** Line: 1690 Index: 10 - "-10.4853" is not a valid Object Type.
   ** Severe  ** Line: 1691 Index: 10 - "-18.5734" is not a valid Object Type.
   ** Severe  ** Line: 1708 Index: 10 - "-10.4853" is not a valid Object Type.
   ** Severe  ** Line: 1709 Index: 10 - "-10.4853" is not a valid Object Type.
   ** Severe  ** Line: 1710 Index: 10 - "-18.5734" is not a valid Object Type.
   ** Severe  ** Line: 1727 Index: 10 - "-10.4853" is not a valid Object Type.
   ** Severe  ** Line: 1728 Index: 10 - "-10.4853" is not a valid Object Type.
   ** Severe  ** Line: 1729 Index: 10 - "-10.4853" is not a valid Object Type.
   ** Severe  ** Line: 1746 Index: 10 - "-18.5734" is not a valid Object Type.
   ** Severe  ** Line: 1747 Index: 10 - "-18.5734" is not a valid Object Type.
   ** Severe  ** Line: 1748 Index: 10 - "-10.4853" is not a valid Object Type.
   ** Severe  ** Line: 1765 Index: 10 - "-18.5734" is not a valid Object Type.
   ** Severe  ** Line: 1766 Index: 10 - "-18.5734" is not a valid Object Type.
   ** Severe  ** Line: 1767 Index: 10 - "-18.5734" is not a valid Object Type.
   ** Severe  ** Line: 1784 Index: 9 - "10.8046" is not a valid Object Type.
   ** Severe  ** Line: 1785 Index: 9 - "10.8046" is not a valid Object Type.
   ** Severe  ** Line: 1786 Index: 9 - "-1.5378" is not a valid Object Type.
   ** Severe  ** Line: 1803 Index: 9 - "10.8046" is not a valid Object Type.
   ** Severe  ** Line: 1804 Index: 9 - "10.8046" is not a valid Object Type.
   ** Severe  ** Line: 1805 Index: 9 - "-1.5378" is not a valid Object Type.
   ** Severe  ** Line: 1822 Index: 9 - "10.8046" is not a valid Object Type.
   ** Severe  ** Line: 1823 Index: 9 - "10.8046" is not a valid Object Type.
   ** Severe  ** Line: 1824 Index: 9 - "-1.5378" is not a valid Object Type.
   ** Severe  ** Line: 1841 Index: 9 - "10.8046" is not a valid Object Type.
   ** Severe  ** Line: 1842 Index: 9 - "10.8046" is not a valid Object Type.
   ** Severe  ** Line: 1843 Index: 9 - "10.8046" is not a valid Object Type.
   ** Severe  ** Line: 1860 Index: 9 - "-1.5378" is not a valid Object Type.
   ** Severe  ** Line: 1861 Index: 9 - "-1.5378" is not a valid Object Type.
   ** Severe  ** Line: 1862 Index: 9 - "10.8046" is not a valid Object Type.
   ** Severe  ** Line: 1879 Index: 9 - "-1.5378" is not a valid Object Type.
   ** Severe  ** Line: 1880 Index: 9 - "-1.5378" is not a valid Object Type.
   ** Severe  ** Line: 1881 Index: 9 - "-1.5378" is not a valid Object Type.
   ** Severe  ** Line: 1898 Index: 8 - "0.6932" is not a valid Object Type.
   ** Severe  ** Line: 1899 Index: 8 - "0.6932" is not a valid Object Type.
   ** Severe  ** Line: 1900 Index: 9 - "-3.3654" is not a valid Object Type.
   ** Severe  ** Line: 1917 Index: 8 - "0.6932" is not a valid Object Type.
   ** Severe  ** Line: 1918 Index: 8 - "0.6932" is not a valid Object Type.
   ** Severe  ** Line: 1919 Index: 9 - "-3.3654" is not a valid Object Type.
   ** Severe  ** Line: 1936 Index: 8 - "0.6932" is not a valid Object Type.
   ** Severe  ** Line: 1937 Index: 8 - "0.6932" is not a valid Object Type.
   ** Severe  ** Line: 1938 Index: 9 - "-3.3654" is not a valid Object Type.
   ** Severe  ** Line: 1955 Index: 8 - "0.6932" is not a valid Object Type.
   ** Severe  ** Line: 1956 Index: 8 - "0.6932" is not a valid Object Type.
   ** Severe  ** Line: 1957 Index: 8 - "0.6932" is not a valid Object Type.
   ** Severe  ** Line: 1974 Index: 9 - "-3.3654" is not a valid Object Type.
   ** Severe  ** Line: 1975 Index: 9 - "-3.3654" is not a valid Object Type.
   ** Severe  ** Line: 1976 Index: 8 - "0.6932" is not a valid Object Type.
   ** Severe  ** Line: 1993 Index: 9 - "-3.3654" is not a valid Object Type.
   ** Severe  ** Line: 1994 Index: 9 - "-3.3654" is not a valid Object Type.
   ** Severe  ** Line: 1995 Index: 9 - "-3.3654" is not a valid Object Type.
   ** Severe  ** Line: 2012 Index: 8 - "1.9769" is not a valid Object Type.
   ** Severe  ** Line: 2013 Index: 8 - "1.9769" is not a valid Object Type.
   ** Severe  ** Line: 2014 Index: 9 - "-3.5924" is not a valid Object Type.
   ** Severe  ** Line: 2031 Index: 8 - "1.9769" is not a valid Object Type.
   ** Severe  ** Line: 2032 Index: 8 - "1.9769" is not a valid Object Type.
   ** Severe  ** Line: 2033 Index: 9 - "-3.5924" is not a valid Object Type.
   ** Severe  ** Line: 2050 Index: 8 - "1.9769" is not a valid Object Type.
   ** Severe  ** Line: 2051 Index: 8 - "1.9769" is not a valid Object Type.
   ** Severe  ** Line: 2052 Index: 9 - "-3.5924" is not a valid Object Type.
   ** Severe  ** Line: 2069 Index: 8 - "1.9769" is not a valid Object Type.
   ** Severe  ** Line: 2070 Index: 8 - "1.9769" is not a valid Object Type.
   ** Severe  ** Line: 2071 Index: 8 - "1.9769" is not a valid Object Type.
   ** Severe  ** Line: 2088 Index: 9 - "-3.5924" is not a valid Object Type.
   ** Severe  ** Line: 2089 Index: 9 - "-3.5924" is not a valid Object Type.
   ** Severe  ** Line: 2090 Index: 8 - "1.9769" is not a valid Object Type.
   ** Severe  ** Line: 2107 Index: 9 - "-3.5924" is not a valid Object Type.
   ** Severe  ** Line: 2108 Index: 9 - "-3.5924" is not a valid Object Type.
   ** Severe  ** Line: 2109 Index: 9 - "-3.5924" is not a valid Object Type.
   ** Severe  ** Line: 2126 Index: 9 - "-2.2166" is not a valid Object Type.
   ** Severe  ** Line: 2127 Index: 9 - "-2.2166" is not a valid Object Type.
   ** Severe  ** Line: 2128 Index: 9 - "-9.7310" is not a valid Object Type.
   ** Severe  ** Line: 2145 Index: 9 - "-2.2166" is not a valid Object Type.
   ** Severe  ** Line: 2146 Index: 9 - "-2.2166" is not a valid Object Type.
   ** Severe  ** Line: 2147 Index: 9 - "-9.7310" is not a valid Object Type.
   ** Severe  ** Line: 2164 Index: 9 - "-2.2166" is not a valid Object Type.
   ** Severe  ** Line: 2165 Index: 9 - "-2.2166" is not a valid Object Type.
   ** Severe  ** Line: 2166 Index: 9 - "-9.7310" is not a valid Object Type.
   ** Severe  ** Line: 2183 Index: 9 - "-2.2166" is not a valid Object Type.
   ** Severe  ** Line: 2184 Index: 9 - "-2.2166" is not a valid Object Type.
   ** Severe  ** Line: 2185 Index: 9 - "-2.2166" is not a valid Object Type.
   ** Severe  ** Line: 2202 Index: 9 - "-9.7310" is not a valid Object Type.
   ** Severe  ** Line: 2203 Index: 9 - "-9.7310" is not a valid Object Type.
   ** Severe  ** Line: 2204 Index: 9 - "-2.2166" is not a valid Object Type.
   ** Severe  ** Line: 2221 Index: 9 - "-9.7310" is not a valid Object Type.
   ** Severe  ** Line: 2222 Index: 9 - "-9.7310" is not a valid Object Type.
   ** Severe  ** Line: 2223 Index: 9 - "-9.7310" is not a valid Object Type.
   ** Severe  ** Line: 2240 Index: 9 - "-0.0506" is not a valid Object Type.
   ** Severe  ** Line: 2241 Index: 9 - "-0.0506" is not a valid Object Type.
   ** Severe  ** Line: 2242 Index: 9 - "-6.8480" is not a valid Object Type.
   ** Severe  ** Line: 2259 Index: 9 - "-0.0506" is not a valid Object Type.
   ** Severe  ** Line: 2260 Index: 9 - "-0.0506" is not a valid Object Type.
   ** Severe  ** Line: 2261 Index: 9 - "-6.8480" is not a valid Object Type.
   ** Severe  ** Line: 2278 Index: 9 - "-0.0506" is not a valid Object Type.
   ** Severe  ** Line: 2279 Index: 9 - "-0.0506" is not a valid Object Type.
   ** Severe  ** Line: 2280 Index: 9 - "-6.8480" is not a valid Object Type.
   ** Severe  ** Line: 2297 Index: 9 - "-0.0506" is not a valid Object Type.
   ** Severe  ** Line: 2298 Index: 9 - "-0.0506" is not a valid Object Type.
   ** Severe  ** Line: 2299 Index: 9 - "-0.0506" is not a valid Object Type.
   ** Severe  ** Line: 2316 Index: 9 - "-6.8480" is not a valid Object Type.
   ** Severe  ** Line: 2317 Index: 9 - "-6.8480" is not a valid Object Type.
   ** Severe  ** Line: 2318 Index: 9 - "-0.0506" is not a valid Object Type.
   ** Severe  ** Line: 2335 Index: 9 - "-6.8480" is not a valid Object Type.
   ** Severe  ** Line: 2336 Index: 9 - "-6.8480" is not a valid Object Type.
   ** Severe  ** Line: 2337 Index: 9 - "-6.8480" is not a valid Object Type.
   ** Severe  ** Line: 2354 Index: 8 - "9.0522" is not a valid Object Type.
   ** Severe  ** Line: 2355 Index: 8 - "9.0522" is not a valid Object Type.
   ** Severe  ** Line: 2356 Index: 8 - "1.3864" is not a valid Object Type.
   ** Severe  ** Line: 2373 Index: 8 - "9.0522" is not a valid Object Type.
   ** Severe  ** Line: 2374 Index: 8 - "9.0522" is not a valid Object Type.
   ** Severe  ** Line: 2375 Index: 8 - "1.3864" is not a valid Object Type.
   ** Severe  ** Line: 2392 Index: 8 - "9.0522" is not a valid Object Type.
   ** Severe  ** Line: 2393 Index: 8 - "9.0522" is not a valid Object Type.
   ** Severe  ** Line: 2394 Index: 8 - "1.3864" is not a valid Object Type.
   ** Severe  ** Line: 2411 Index: 8 - "9.0522" is not a valid Object Type.
   ** Severe  ** Line: 2412 Index: 8 - "9.0522" is not a valid Object Type.
   ** Severe  ** Line: 2413 Index: 8 - "9.0522" is not a valid Object Type.
   ** Severe  ** Line: 2430 Index: 8 - "1.3864" is not a valid Object Type.
   ** Severe  ** Line: 2431 Index: 8 - "1.3864" is not a valid Object Type.
   ** Severe  ** Line: 2432 Index: 8 - "9.0522" is not a valid Object Type.
   ** Severe  ** Line: 2449 Index: 8 - "1.3864" is not a valid Object Type.
   ** Severe  ** Line: 2450 Index: 8 - "1.3864" is not a valid Object Type.
   ** Severe  ** Line: 2451 Index: 8 - "1.3864" is not a valid Object Type.
   ** Severe  ** Line: 2468 Index: 9 - "18.3604" is not a valid Object Type.
   ** Severe  ** Line: 2469 Index: 9 - "18.3604" is not a valid Object Type.
   ** Severe  ** Line: 2470 Index: 9 - "14.1913" is not a valid Object Type.
   ** Severe  ** Line: 2487 Index: 9 - "18.3604" is not a valid Object Type.
   ** Severe  ** Line: 2488 Index: 9 - "18.3604" is not a valid Object Type.
   ** Severe  ** Line: 2489 Index: 9 - "14.1913" is not a valid Object Type.
   ** Severe  ** Line: 2506 Index: 9 - "18.3604" is not a valid Object Type.
   ** Severe  ** Line: 2507 Index: 9 - "18.3604" is not a valid Object Type.
   ** Severe  ** Line: 2508 Index: 9 - "14.1913" is not a valid Object Type.
   ** Severe  ** Line: 2525 Index: 9 - "18.3604" is not a valid Object Type.
   ** Severe  ** Line: 2526 Index: 9 - "18.3604" is not a valid Object Type.
   ** Severe  ** Line: 2527 Index: 9 - "18.3604" is not a valid Object Type.
   ** Severe  ** Line: 2544 Index: 9 - "14.1913" is not a valid Object Type.
   ** Severe  ** Line: 2545 Index: 9 - "14.1913" is not a valid Object Type.
   ** Severe  ** Line: 2546 Index: 9 - "18.3604" is not a valid Object Type.
   ** Severe  ** Line: 2563 Index: 9 - "14.1913" is not a valid Object Type.
   ** Severe  ** Line: 2564 Index: 9 - "14.1913" is not a valid Object Type.
   ** Severe  ** Line: 2565 Index: 9 - "14.1913" is not a valid Object Type.
   ** Severe  ** Line: 2582 Index: 8 - "1.7324" is not a valid Object Type.
   ** Severe  ** Line: 2583 Index: 8 - "1.7324" is not a valid Object Type.
   ** Severe  ** Line: 2584 Index: 10 - "-10.6957" is not a valid Object Type.
   ** Severe  ** Line: 2601 Index: 8 - "1.7324" is not a valid Object Type.
   ** Severe  ** Line: 2602 Index: 8 - "1.7324" is not a valid Object Type.
   ** Severe  ** Line: 2603 Index: 10 - "-10.6957" is not a valid Object Type.
   ** Severe  ** Line: 2620 Index: 8 - "1.7324" is not a valid Object Type.
   ** Severe  ** Line: 2621 Index: 8 - "1.7324" is not a valid Object Type.
   ** Severe  ** Line: 2622 Index: 10 - "-10.6957" is not a valid Object Type.
   ** Severe  ** Line: 2639 Index: 8 - "1.7324" is not a valid Object Type.
   ** Severe  ** Line: 2640 Index: 8 - "1.7324" is not a valid Object Type.
   ** Severe  ** Line: 2641 Index: 8 - "1.7324" is not a valid Object Type.
   ** Severe  ** Line: 2658 Index: 10 - "-10.6957" is not a valid Object Type.
   ** Severe  ** Line: 2659 Index: 10 - "-10.6957" is not a valid Object Type.
   ** Severe  ** Line: 2660 Index: 8 - "1.7324" is not a valid Object Type.
   ** Severe  ** Line: 2677 Index: 10 - "-10.6957" is not a valid Object Type.
   ** Severe  ** Line: 2678 Index: 10 - "-10.6957" is not a valid Object Type.
   ** Severe  ** Line: 2679 Index: 10 - "-10.6957" is not a valid Object Type.
   ** Severe  ** Line: 2696 Index: 8 - "1.0835" is not a valid Object Type.
   ** Severe  ** Line: 2697 Index: 8 - "1.0835" is not a valid Object Type.
   ** Severe  ** Line: 2698 Index: 9 - "-4.3221" is not a valid Object Type.
   ** Severe  ** Line: 2715 Index: 8 - "1.0835" is not a valid Object Type.
   ** Severe  ** Line: 2716 Index: 8 - "1.0835" is not a valid Object Type.
   ** Severe  ** Line: 2717 Index: 9 - "-4.3221" is not a valid Object Type.
   ** Severe  ** Line: 2734 Index: 8 - "1.0835" is not a valid Object Type.
   ** Severe  ** Line: 2735 Index: 8 - "1.0835" is not a valid Object Type.
   ** Severe  ** Line: 2736 Index: 9 - "-4.3221" is not a valid Object Type.
   ** Severe  ** Line: 2753 Index: 8 - "1.0835" is not a valid Object Type.
   ** Severe  ** Line: 2754 Index: 8 - "1.0835" is not a valid Object Type.
   ** Severe  ** Line: 2755 Index: 8 - "1.0835" is not a valid Object Type.
   ** Severe  ** Line: 2772 Index: 9 - "-4.3221" is not a valid Object Type.
   ** Severe  ** Line: 2773 Index: 9 - "-4.3221" is not a valid Object Type.
   ** Severe  ** Line: 2774 Index: 8 - "1.0835" is not a valid Object Type.
   ** Severe  ** Line: 2791 Index: 9 - "-4.3221" is not a valid Object Type.
   ** Severe  ** Line: 2792 Index: 9 - "-4.3221" is not a valid Object Type.
   ** Severe  ** Line: 2793 Index: 9 - "-4.3221" is not a valid Object Type.
   ** Severe  ** Line: 2810 Index: 8 - "9.0747" is not a valid Object Type.
   ** Severe  ** Line: 2811 Index: 8 - "9.0747" is not a valid Object Type.
   ** Severe  ** Line: 2812 Index: 8 - "4.2594" is not a valid Object Type.
   ** Severe  ** Line: 2829 Index: 8 - "9.0747" is not a valid Object Type.
   ** Severe  ** Line: 2830 Index: 8 - "9.0747" is not a valid Object Type.
   ** Severe  ** Line: 2831 Index: 8 - "4.2594" is not a valid Object Type.
   ** Severe  ** Line: 2848 Index: 8 - "9.0747" is not a valid Object Type.
   ** Severe  ** Line: 2849 Index: 8 - "9.0747" is not a valid Object Type.
   ** Severe  ** Line: 2850 Index: 8 - "4.2594" is not a valid Object Type.
   ** Severe  ** Line: 2867 Index: 8 - "9.0747" is not a valid Object Type.
   ** Severe  ** Line: 2868 Index: 8 - "9.0747" is not a valid Object Type.
   ** Severe  ** Line: 2869 Index: 8 - "9.0747" is not a valid Object Type.
   ** Severe  ** Line: 2886 Index: 8 - "4.2594" is not a valid Object Type.
   ** Severe  ** Line: 2887 Index: 8 - "4.2594" is not a valid Object Type.
   ** Severe  ** Line: 2888 Index: 8 - "9.0747" is not a valid Object Type.
   ** Severe  ** Line: 2905 Index: 8 - "4.2594" is not a valid Object Type.
   ** Severe  ** Line: 2906 Index: 8 - "4.2594" is not a valid Object Type.
   ** Severe  ** Line: 2907 Index: 8 - "4.2594" is not a valid Object Type.
   ** Severe  ** Line: 2922 Index: 10 - "-13.4320" is not a valid Object Type.
   ** Severe  ** Line: 2923 Index: 10 - "-10.4320" is not a valid Object Type.
   ** Severe  ** Line: 2924 Index: 10 - "-10.4320" is not a valid Object Type.
   ** Severe  ** Line: 2939 Index: 9 - "-8.8008" is not a valid Object Type.
   ** Severe  ** Line: 2940 Index: 9 - "-5.8008" is not a valid Object Type.
   ** Severe  ** Line: 2941 Index: 9 - "-5.8008" is not a valid Object Type.
   ** Severe  ** Line: 2956 Index: 10 - "-13.4320" is not a valid Object Type.
   ** Severe  ** Line: 2957 Index: 10 - "-10.4320" is not a valid Object Type.
   ** Severe  ** Line: 2958 Index: 10 - "-10.4320" is not a valid Object Type.
   ** Severe  ** Line: 2973 Index: 10 - "-18.0632" is not a valid Object Type.
   ** Severe  ** Line: 2974 Index: 10 - "-15.0632" is not a valid Object Type.
   ** Severe  ** Line: 2975 Index: 10 - "-15.0632" is not a valid Object Type.
   ** Severe  ** Line: 2990 Index: 10 - "-11.2664" is not a valid Object Type.
   ** Severe  ** Line: 2991 Index: 9 - "-8.3104" is not a valid Object Type.
   ** Severe  ** Line: 2992 Index: 9 - "-8.3104" is not a valid Object Type.
   ** Severe  ** Line: 3007 Index: 9 - "-8.8251" is not a valid Object Type.
   ** Severe  ** Line: 3008 Index: 9 - "-5.8251" is not a valid Object Type.
   ** Severe  ** Line: 3009 Index: 9 - "-5.8251" is not a valid Object Type.
   ** Severe  ** Line: 3024 Index: 10 - "-11.2664" is not a valid Object Type.
   ** Severe  ** Line: 3025 Index: 9 - "-8.3104" is not a valid Object Type.
   ** Severe  ** Line: 3026 Index: 9 - "-8.3104" is not a valid Object Type.
   ** Severe  ** Line: 3041 Index: 10 - "-13.7517" is not a valid Object Type.
   ** Severe  ** Line: 3042 Index: 10 - "-10.7517" is not a valid Object Type.
   ** Severe  ** Line: 3043 Index: 10 - "-10.7517" is not a valid Object Type.
   ** Severe  ** Line: 3058 Index: 9 - "-6.1221" is not a valid Object Type.
   ** Severe  ** Line: 3059 Index: 9 - "-3.1221" is not a valid Object Type.
   ** Severe  ** Line: 3060 Index: 9 - "-3.1221" is not a valid Object Type.
   ** Severe  ** Line: 3075 Index: 9 - "-2.9973" is not a valid Object Type.
   ** Severe  ** Line: 3076 Index: 8 - "0.0027" is not a valid Object Type.
   ** Severe  ** Line: 3077 Index: 8 - "0.0027" is not a valid Object Type.
   ** Severe  ** Line: 3092 Index: 9 - "-6.1221" is not a valid Object Type.
   ** Severe  ** Line: 3093 Index: 9 - "-3.1221" is not a valid Object Type.
   ** Severe  ** Line: 3094 Index: 9 - "-3.1221" is not a valid Object Type.
   ** Severe  ** Line: 3109 Index: 9 - "-9.2469" is not a valid Object Type.
   ** Severe  ** Line: 3110 Index: 9 - "-6.2469" is not a valid Object Type.
   ** Severe  ** Line: 3111 Index: 9 - "-6.2469" is not a valid Object Type.
   ** Severe  ** Line: 3126 Index: 9 - "-5.9339" is not a valid Object Type.
   ** Severe  ** Line: 3127 Index: 9 - "-2.9339" is not a valid Object Type.
   ** Severe  ** Line: 3128 Index: 9 - "-2.9339" is not a valid Object Type.
   ** Severe  ** Line: 3143 Index: 9 - "-2.1097" is not a valid Object Type.
   ** Severe  ** Line: 3144 Index: 8 - "0.8903" is not a valid Object Type.
   ** Severe  ** Line: 3145 Index: 8 - "0.8903" is not a valid Object Type.
   ** Severe  ** Line: 3160 Index: 9 - "-5.9339" is not a valid Object Type.
   ** Severe  ** Line: 3161 Index: 9 - "-2.9339" is not a valid Object Type.
   ** Severe  ** Line: 3162 Index: 9 - "-2.9339" is not a valid Object Type.
   ** Severe  ** Line: 3177 Index: 9 - "-9.7581" is not a valid Object Type.
   ** Severe  ** Line: 3178 Index: 9 - "-6.7581" is not a valid Object Type.
   ** Severe  ** Line: 3179 Index: 9 - "-6.7581" is not a valid Object Type.
   ** Severe  ** Line: 3194 Index: 8 - "3.8504" is not a valid Object Type.
   ** Severe  ** Line: 3195 Index: 8 - "6.8504" is not a valid Object Type.
   ** Severe  ** Line: 3196 Index: 8 - "6.8504" is not a valid Object Type.
   ** Severe  ** Line: 3211 Index: 8 - "8.5143" is not a valid Object Type.
   ** Severe  ** Line: 3212 Index: 9 - "11.5143" is not a valid Object Type.
   ** Severe  ** Line: 3213 Index: 9 - "11.5143" is not a valid Object Type.
   ** Severe  ** Line: 3228 Index: 8 - "3.8504" is not a valid Object Type.
   ** Severe  ** Line: 3229 Index: 8 - "6.8504" is not a valid Object Type.
   ** Severe  ** Line: 3230 Index: 8 - "6.8504" is not a valid Object Type.
   ** Severe  ** Line: 3245 Index: 9 - "-0.8136" is not a valid Object Type.
   ** Severe  ** Line: 3246 Index: 8 - "2.1864" is not a valid Object Type.
   ** Severe  ** Line: 3247 Index: 8 - "2.1864" is not a valid Object Type.
   ** Severe  ** Line: 3262 Index: 8 - "5.0730" is not a valid Object Type.
   ** Severe  ** Line: 3263 Index: 8 - "8.0730" is not a valid Object Type.
   ** Severe  ** Line: 3264 Index: 8 - "8.0730" is not a valid Object Type.
   ** Severe  ** Line: 3279 Index: 8 - "7.8157" is not a valid Object Type.
   ** Severe  ** Line: 3280 Index: 9 - "10.8157" is not a valid Object Type.
   ** Severe  ** Line: 3281 Index: 9 - "10.8157" is not a valid Object Type.
   ** Severe  ** Line: 3296 Index: 8 - "5.0730" is not a valid Object Type.
   ** Severe  ** Line: 3297 Index: 8 - "8.0730" is not a valid Object Type.
   ** Severe  ** Line: 3298 Index: 8 - "8.0730" is not a valid Object Type.
   ** Severe  ** Line: 3313 Index: 8 - "2.3303" is not a valid Object Type.
   ** Severe  ** Line: 3314 Index: 8 - "5.3303" is not a valid Object Type.
   ** Severe  ** Line: 3315 Index: 8 - "5.3303" is not a valid Object Type.
   ** Severe  ** Line: 3330 Index: 8 - "8.7731" is not a valid Object Type.
   ** Severe  ** Line: 3331 Index: 9 - "11.6005" is not a valid Object Type.
   ** Severe  ** Line: 3332 Index: 9 - "11.6005" is not a valid Object Type.
   ** Severe  ** Line: 3347 Index: 9 - "11.0429" is not a valid Object Type.
   ** Severe  ** Line: 3348 Index: 9 - "14.0429" is not a valid Object Type.
   ** Severe  ** Line: 3349 Index: 9 - "14.0429" is not a valid Object Type.
   ** Severe  ** Line: 3364 Index: 8 - "8.7731" is not a valid Object Type.
   ** Severe  ** Line: 3365 Index: 9 - "11.6005" is not a valid Object Type.
   ** Severe  ** Line: 3366 Index: 9 - "11.6005" is not a valid Object Type.
   ** Severe  ** Line: 3381 Index: 8 - "6.3306" is not a valid Object Type.
   ** Severe  ** Line: 3382 Index: 8 - "9.3306" is not a valid Object Type.
   ** Severe  ** Line: 3383 Index: 8 - "9.3306" is not a valid Object Type.
   ** Severe  ** Line: 3398 Index: 9 - "-8.2034" is not a valid Object Type.
   ** Severe  ** Line: 3399 Index: 9 - "-5.2034" is not a valid Object Type.
   ** Severe  ** Line: 3400 Index: 9 - "-5.2034" is not a valid Object Type.
   ** Severe  ** Line: 3415 Index: 9 - "-4.0155" is not a valid Object Type.
   ** Severe  ** Line: 3416 Index: 9 - "-1.0155" is not a valid Object Type.
   ** Severe  ** Line: 3417 Index: 9 - "-1.0155" is not a valid Object Type.
   ** Severe  ** Line: 3432 Index: 9 - "-8.2034" is not a valid Object Type.
   ** Severe  ** Line: 3433 Index: 9 - "-5.2034" is not a valid Object Type.
   ** Severe  ** Line: 3434 Index: 9 - "-5.2034" is not a valid Object Type.
   ** Severe  ** Line: 3449 Index: 10 - "-12.3913" is not a valid Object Type.
   ** Severe  ** Line: 3450 Index: 9 - "-9.3913" is not a valid Object Type.
   ** Severe  ** Line: 3451 Index: 9 - "-9.3913" is not a valid Object Type.
   ** Severe  ** Line: 3466 Index: 9 - "-5.2351" is not a valid Object Type.
   ** Severe  ** Line: 3467 Index: 9 - "-2.2351" is not a valid Object Type.
   ** Severe  ** Line: 3468 Index: 9 - "-2.2351" is not a valid Object Type.
   ** Severe  ** Line: 3483 Index: 9 - "-1.0004" is not a valid Object Type.
   ** Severe  ** Line: 3484 Index: 8 - "1.9996" is not a valid Object Type.
   ** Severe  ** Line: 3485 Index: 8 - "1.9996" is not a valid Object Type.
   ** Severe  ** Line: 3500 Index: 9 - "-5.2351" is not a valid Object Type.
   ** Severe  ** Line: 3501 Index: 9 - "-2.2351" is not a valid Object Type.
   ** Severe  ** Line: 3502 Index: 9 - "-2.2351" is not a valid Object Type.
   ** Severe  ** Line: 3517 Index: 9 - "-9.4697" is not a valid Object Type.
   ** Severe  ** Line: 3518 Index: 9 - "-6.4697" is not a valid Object Type.
   ** Severe  ** Line: 3519 Index: 9 - "-6.4697" is not a valid Object Type.
   ** Severe  ** Line: 3534 Index: 9 - "13.4809" is not a valid Object Type.
   ** Severe  ** Line: 3535 Index: 9 - "16.4809" is not a valid Object Type.
   ** Severe  ** Line: 3536 Index: 9 - "16.4809" is not a valid Object Type.
   ** Severe  ** Line: 3551 Index: 9 - "16.2949" is not a valid Object Type.
   ** Severe  ** Line: 3552 Index: 9 - "19.2949" is not a valid Object Type.
   ** Severe  ** Line: 3553 Index: 9 - "19.2949" is not a valid Object Type.
   ** Severe  ** Line: 3568 Index: 9 - "13.4809" is not a valid Object Type.
   ** Severe  ** Line: 3569 Index: 9 - "16.4809" is not a valid Object Type.
   ** Severe  ** Line: 3570 Index: 9 - "16.4809" is not a valid Object Type.
   ** Severe  ** Line: 3585 Index: 9 - "10.6669" is not a valid Object Type.
   ** Severe  ** Line: 3586 Index: 9 - "13.6669" is not a valid Object Type.
   ** Severe  ** Line: 3587 Index: 9 - "13.6669" is not a valid Object Type.
   ** Severe  ** Line: 3602 Index: 10 - "-16.0294" is not a valid Object Type.
   ** Severe  ** Line: 3603 Index: 10 - "-13.0294" is not a valid Object Type.
   ** Severe  ** Line: 3604 Index: 10 - "-13.0294" is not a valid Object Type.
   ** Severe  ** Line: 3619 Index: 10 - "-11.9853" is not a valid Object Type.
   ** Severe  ** Line: 3620 Index: 9 - "-8.9853" is not a valid Object Type.
   ** Severe  ** Line: 3621 Index: 9 - "-8.9853" is not a valid Object Type.
   ** Severe  ** Line: 3636 Index: 10 - "-16.0294" is not a valid Object Type.
   ** Severe  ** Line: 3637 Index: 10 - "-13.0294" is not a valid Object Type.
   ** Severe  ** Line: 3638 Index: 10 - "-13.0294" is not a valid Object Type.
   ** Severe  ** Line: 3653 Index: 10 - "-20.0734" is not a valid Object Type.
   ** Severe  ** Line: 3654 Index: 10 - "-17.0734" is not a valid Object Type.
   ** Severe  ** Line: 3655 Index: 10 - "-17.0734" is not a valid Object Type.
   ** Severe  ** Line: 3670 Index: 8 - "3.1334" is not a valid Object Type.
   ** Severe  ** Line: 3671 Index: 8 - "6.1334" is not a valid Object Type.
   ** Severe  ** Line: 3672 Index: 8 - "6.1334" is not a valid Object Type.
   ** Severe  ** Line: 3687 Index: 8 - "9.3046" is not a valid Object Type.
   ** Severe  ** Line: 3688 Index: 9 - "12.3046" is not a valid Object Type.
   ** Severe  ** Line: 3689 Index: 9 - "12.3046" is not a valid Object Type.
   ** Severe  ** Line: 3704 Index: 8 - "3.1334" is not a valid Object Type.
   ** Severe  ** Line: 3705 Index: 8 - "6.1334" is not a valid Object Type.
   ** Severe  ** Line: 3706 Index: 8 - "6.1334" is not a valid Object Type.
   ** Severe  ** Line: 3721 Index: 9 - "-3.0378" is not a valid Object Type.
   ** Severe  ** Line: 3722 Index: 9 - "-0.0378" is not a valid Object Type.
   ** Severe  ** Line: 3723 Index: 9 - "-0.0378" is not a valid Object Type.
   ** Severe  ** Line: 3738 Index: 9 - "-2.5537" is not a valid Object Type.
   ** Severe  ** Line: 3739 Index: 9 - "-0.1185" is not a valid Object Type.
   ** Severe  ** Line: 3740 Index: 9 - "-0.1185" is not a valid Object Type.
   ** Severe  ** Line: 3755 Index: 9 - "-0.8068" is not a valid Object Type.
   ** Severe  ** Line: 3756 Index: 8 - "2.1932" is not a valid Object Type.
   ** Severe  ** Line: 3757 Index: 8 - "2.1932" is not a valid Object Type.
   ** Severe  ** Line: 3772 Index: 9 - "-2.5537" is not a valid Object Type.
   ** Severe  ** Line: 3773 Index: 9 - "-0.1185" is not a valid Object Type.
   ** Severe  ** Line: 3774 Index: 9 - "-0.1185" is not a valid Object Type.
   ** Severe  ** Line: 3789 Index: 9 - "-4.8654" is not a valid Object Type.
   ** Severe  ** Line: 3790 Index: 9 - "-1.8654" is not a valid Object Type.
   ** Severe  ** Line: 3791 Index: 9 - "-1.8654" is not a valid Object Type.
   ** Severe  ** Line: 3806 Index: 9 - "-2.3077" is not a valid Object Type.
   ** Severe  ** Line: 3807 Index: 8 - "0.6923" is not a valid Object Type.
   ** Severe  ** Line: 3808 Index: 8 - "0.6923" is not a valid Object Type.
   ** Severe  ** Line: 3823 Index: 8 - "0.4769" is not a valid Object Type.
   ** Severe  ** Line: 3824 Index: 8 - "3.4769" is not a valid Object Type.
   ** Severe  ** Line: 3825 Index: 8 - "3.4769" is not a valid Object Type.
   ** Severe  ** Line: 3840 Index: 9 - "-2.3077" is not a valid Object Type.
   ** Severe  ** Line: 3841 Index: 8 - "0.6923" is not a valid Object Type.
   ** Severe  ** Line: 3842 Index: 8 - "0.6923" is not a valid Object Type.
   ** Severe  ** Line: 3857 Index: 9 - "-5.0924" is not a valid Object Type.
   ** Severe  ** Line: 3858 Index: 9 - "-2.0924" is not a valid Object Type.
   ** Severe  ** Line: 3859 Index: 9 - "-2.0924" is not a valid Object Type.
   ** Severe  ** Line: 3874 Index: 9 - "-7.4738" is not a valid Object Type.
   ** Severe  ** Line: 3875 Index: 9 - "-4.4738" is not a valid Object Type.
   ** Severe  ** Line: 3876 Index: 9 - "-4.4738" is not a valid Object Type.
   ** Severe  ** Line: 3891 Index: 9 - "-3.7166" is not a valid Object Type.
   ** Severe  ** Line: 3892 Index: 9 - "-0.7166" is not a valid Object Type.
   ** Severe  ** Line: 3893 Index: 9 - "-0.7166" is not a valid Object Type.
   ** Severe  ** Line: 3908 Index: 9 - "-7.4738" is not a valid Object Type.
   ** Severe  ** Line: 3909 Index: 9 - "-4.4738" is not a valid Object Type.
   ** Severe  ** Line: 3910 Index: 9 - "-4.4738" is not a valid Object Type.
   ** Severe  ** Line: 3925 Index: 10 - "-11.2310" is not a valid Object Type.
   ** Severe  ** Line: 3926 Index: 9 - "-8.2310" is not a valid Object Type.
   ** Severe  ** Line: 3927 Index: 9 - "-8.2310" is not a valid Object Type.
   ** Severe  ** Line: 3942 Index: 9 - "-4.9493" is not a valid Object Type.
   ** Severe  ** Line: 3943 Index: 9 - "-1.9493" is not a valid Object Type.
   ** Severe  ** Line: 3944 Index: 9 - "-1.9493" is not a valid Object Type.
   ** Severe  ** Line: 3959 Index: 9 - "-1.5506" is not a valid Object Type.
   ** Severe  ** Line: 3960 Index: 8 - "1.4494" is not a valid Object Type.
   ** Severe  ** Line: 3961 Index: 8 - "1.4494" is not a valid Object Type.
   ** Severe  ** Line: 3976 Index: 9 - "-4.9493" is not a valid Object Type.
   ** Severe  ** Line: 3977 Index: 9 - "-1.9493" is not a valid Object Type.
   ** Severe  ** Line: 3978 Index: 9 - "-1.9493" is not a valid Object Type.
   ** Severe  ** Line: 3993 Index: 9 - "-8.3480" is not a valid Object Type.
   ** Severe  ** Line: 3994 Index: 9 - "-5.3480" is not a valid Object Type.
   ** Severe  ** Line: 3995 Index: 9 - "-5.3480" is not a valid Object Type.
   ** Severe  ** Line: 4010 Index: 8 - "3.7193" is not a valid Object Type.
   ** Severe  ** Line: 4011 Index: 8 - "6.7193" is not a valid Object Type.
   ** Severe  ** Line: 4012 Index: 8 - "6.7193" is not a valid Object Type.
   ** Severe  ** Line: 4027 Index: 8 - "7.5522" is not a valid Object Type.
   ** Severe  ** Line: 4028 Index: 9 - "10.5522" is not a valid Object Type.
   ** Severe  ** Line: 4029 Index: 9 - "10.5522" is not a valid Object Type.
   ** Severe  ** Line: 4044 Index: 8 - "3.7193" is not a valid Object Type.
   ** Severe  ** Line: 4045 Index: 8 - "6.7193" is not a valid Object Type.
   ** Severe  ** Line: 4046 Index: 8 - "6.7193" is not a valid Object Type.
   ** Severe  ** Line: 4061 Index: 9 - "-0.1136" is not a valid Object Type.
   ** Severe  ** Line: 4062 Index: 8 - "2.8864" is not a valid Object Type.
   ** Severe  ** Line: 4063 Index: 8 - "2.8864" is not a valid Object Type.
   ** Severe  ** Line: 4078 Index: 9 - "15.0251" is not a valid Object Type.
   ** Severe  ** Line: 4079 Index: 9 - "17.5266" is not a valid Object Type.
   ** Severe  ** Line: 4080 Index: 9 - "17.5266" is not a valid Object Type.
   ** Severe  ** Line: 4095 Index: 9 - "16.8604" is not a valid Object Type.
   ** Severe  ** Line: 4096 Index: 9 - "19.8604" is not a valid Object Type.
   ** Severe  ** Line: 4097 Index: 9 - "19.8604" is not a valid Object Type.
   ** Severe  ** Line: 4112 Index: 9 - "15.0251" is not a valid Object Type.
   ** Severe  ** Line: 4113 Index: 9 - "17.5266" is not a valid Object Type.
   ** Severe  ** Line: 4114 Index: 9 - "17.5266" is not a valid Object Type.
   ** Severe  ** Line: 4129 Index: 9 - "12.6913" is not a valid Object Type.
   ** Severe  ** Line: 4130 Index: 9 - "15.6913" is not a valid Object Type.
   ** Severe  ** Line: 4131 Index: 9 - "15.6913" is not a valid Object Type.
   ** Severe  ** Line: 4146 Index: 9 - "-5.9817" is not a valid Object Type.
   ** Severe  ** Line: 4147 Index: 9 - "-2.9817" is not a valid Object Type.
   ** Severe  ** Line: 4148 Index: 9 - "-2.9817" is not a valid Object Type.
   ** Severe  ** Line: 4163 Index: 8 - "0.2324" is not a valid Object Type.
   ** Severe  ** Line: 4164 Index: 8 - "3.2324" is not a valid Object Type.
   ** Severe  ** Line: 4165 Index: 8 - "3.2324" is not a valid Object Type.
   ** Severe  ** Line: 4180 Index: 9 - "-5.9817" is not a valid Object Type.
   ** Severe  ** Line: 4181 Index: 9 - "-2.9817" is not a valid Object Type.
   ** Severe  ** Line: 4182 Index: 9 - "-2.9817" is not a valid Object Type.
   ** Severe  ** Line: 4197 Index: 10 - "-12.1957" is not a valid Object Type.
   ** Severe  ** Line: 4198 Index: 9 - "-9.1957" is not a valid Object Type.
   ** Severe  ** Line: 4199 Index: 9 - "-9.1957" is not a valid Object Type.
   ** Severe  ** Line: 4214 Index: 9 - "-3.1193" is not a valid Object Type.
   ** Severe  ** Line: 4215 Index: 9 - "-0.1193" is not a valid Object Type.
   ** Severe  ** Line: 4216 Index: 9 - "-0.1193" is not a valid Object Type.
   ** Severe  ** Line: 4231 Index: 9 - "-0.4165" is not a valid Object Type.
   ** Severe  ** Line: 4232 Index: 8 - "2.5835" is not a valid Object Type.
   ** Severe  ** Line: 4233 Index: 8 - "2.5835" is not a valid Object Type.
   ** Severe  ** Line: 4248 Index: 9 - "-3.1193" is not a valid Object Type.
   ** Severe  ** Line: 4249 Index: 9 - "-0.1193" is not a valid Object Type.
   ** Severe  ** Line: 4250 Index: 9 - "-0.1193" is not a valid Object Type.
   ** Severe  ** Line: 4265 Index: 9 - "-5.8221" is not a valid Object Type.
   ** Severe  ** Line: 4266 Index: 9 - "-2.8221" is not a valid Object Type.
   ** Severe  ** Line: 4267 Index: 9 - "-2.8221" is not a valid Object Type.
   ** Severe  ** Line: 4282 Index: 8 - "5.2224" is not a valid Object Type.
   ** Severe  ** Line: 4283 Index: 8 - "8.1116" is not a valid Object Type.
   ** Severe  ** Line: 4284 Index: 8 - "8.1116" is not a valid Object Type.
   ** Severe  ** Line: 4299 Index: 8 - "7.5747" is not a valid Object Type.
   ** Severe  ** Line: 4300 Index: 9 - "10.5747" is not a valid Object Type.
   ** Severe  ** Line: 4301 Index: 9 - "10.5747" is not a valid Object Type.
   ** Severe  ** Line: 4316 Index: 8 - "5.2224" is not a valid Object Type.
   ** Severe  ** Line: 4317 Index: 8 - "8.1116" is not a valid Object Type.
   ** Severe  ** Line: 4318 Index: 8 - "8.1116" is not a valid Object Type.
   ** Severe  ** Line: 4333 Index: 8 - "2.7594" is not a valid Object Type.
   ** Severe  ** Line: 4334 Index: 8 - "5.7594" is not a valid Object Type.
   ** Severe  ** Line: 4335 Index: 8 - "5.7594" is not a valid Object Type.
   ** Severe  ** <root>[FenestrationSurface:Detailed][break_room_0_Window_1] - Missing required property 'vertex_2_x_coordinate'.
   ** Severe  ** <root>[FenestrationSurface:Detailed][break_room_0_Window_1] - Missing required property 'vertex_2_y_coordinate'.
   ** Severe  ** <root>[FenestrationSurface:Detailed][break_room_0_Window_1] - Missing required property 'vertex_2_z_coordinate'.
   ** Severe  ** <root>[FenestrationSurface:Detailed][break_room_0_Window_1] - Missing required property 'vertex_3_x_coordinate'.
   ** Severe  ** <root>[FenestrationSurface:Detailed][break_room_0_Window_1] - Missing required property 'vertex_3_y_coordinate'.
   ** Severe  ** <root>[FenestrationSurface:Detailed][break_room_0_Window_1] - Missing required property 'vertex_3_z_coordinate'.
   ** Severe  ** <root>[Output:VariableDictionary][Output:VariableDictionary 1][key_field] - "IDD" - Failed to match against any enum values.
   ** Warning ** Version: in IDF="25.1" not the same as expected="24.2"
   **  Fatal  ** Errors occurred on processing input file. Preceding condition(s) cause termination.
   ...Summary of Errors that led to program termination:
   ..... Reference severe error count=644
   ..... Last severe error=<root>[Output:VariableDictionary][Output:VariableDictionary 1][key_field] - "IDD" - Failed to match against any enum values.
   ************* Warning:  Node connection errors not checked - most system input has not been read (see previous warning).
   ************* Fatal error -- final processing.  Program exited before simulations began.  See previous error messages.
   ************* EnergyPlus Warmup Error Summary. During Warmup: 0 Warning; 0 Severe Errors.
   ************* EnergyPlus Sizing Error Summary. During Sizing: 0 Warning; 0 Severe Errors.
   ************* EnergyPlus Terminated--Fatal Error Detected. 1 Warning; 644 Severe Errors; Elapsed Time=00hr 00min  0.10sec
