Program Version,EnergyPlus, Version 24.2.0-94a887817b, YMD=2025.11.02 18:42
! <Version>, Version ID
 Version, 24.2.0
! <Timesteps per Hour>, #TimeSteps, Minutes per TimeStep {minutes}
 Timesteps per Hour,  4, 15
! <System Convergence Limits>, Minimum System TimeStep {minutes}, Max HVAC Iterations, Minimum Plant Iterations, Maximum Plant Iterations
 System Convergence Limits, 1, 20, 2, 8
! <Simulation Control>, Do Zone Sizing, Do System Sizing, Do Plant Sizing, Do Design Days, Do Weather Simulation, Do HVAC Sizing Simulation
 Simulation Control, No, No, No, No, Yes, No
! <Performance Precision Tradeoffs>, Use Coil Direct Simulation, Zone Radiant Exchange Algorithm, Override Mode, Number of Timestep In Hour, Force Euler Method, Minimum Number of Warmup Days, Force Suppress All Begin Environment Resets, Minimum System Timestep, MaxZoneTempDiff, MaxAllowedDelTemp
 Performance Precision Tradeoffs, No, ScriptF, Normal, 4, No, 1, No, 1.0, 0.300, 2.0000E-003
! <Output Reporting Tolerances>, Tolerance for Time Heating Setpoint Not Met, Tolerance for Zone Cooling Setpoint Not Met Time
 Output Reporting Tolerances, 0.200, 0.200, 
! <Site:GroundTemperature:BuildingSurface>,Jan{C},Feb{C},Mar{C},Apr{C},May{C},Jun{C},Jul{C},Aug{C},Sep{C},Oct{C},Nov{C},Dec{C}
 Site:GroundTemperature:BuildingSurface,  13.00,  12.00,  11.00,  10.00,  11.00,  13.00,  15.00,  16.00,  16.00,  15.00,  14.00,  13.00
! <Site:GroundTemperature:FCfactorMethod>,Jan{C},Feb{C},Mar{C},Apr{C},May{C},Jun{C},Jul{C},Aug{C},Sep{C},Oct{C},Nov{C},Dec{C}
 Site:GroundTemperature:FCfactorMethod,  -1.89,  -3.06,  -0.99,   2.23,  10.68,  17.20,  21.60,  22.94,  20.66,  15.60,   8.83,   2.56
! <Site:GroundTemperature:Shallow>,Jan{C},Feb{C},Mar{C},Apr{C},May{C},Jun{C},Jul{C},Aug{C},Sep{C},Oct{C},Nov{C},Dec{C}
 Site:GroundTemperature:Shallow,  11.00,  10.00,   9.00,   8.00,   9.00,  11.00,  13.00,  14.00,  14.00,  13.00,  12.00,  11.00
! <Site:GroundTemperature:Deep>,Jan{C},Feb{C},Mar{C},Apr{C},May{C},Jun{C},Jul{C},Aug{C},Sep{C},Oct{C},Nov{C},Dec{C}
 Site:GroundTemperature:Deep,   9.00,   8.00,   7.00,   6.00,   7.00,   9.00,  11.00,  12.00,  12.00,  11.00,  10.00,   9.00
! <Site:GroundReflectance>,Jan{dimensionless},Feb{dimensionless},Mar{dimensionless},Apr{dimensionless},May{dimensionless},Jun{dimensionless},Jul{dimensionless},Aug{dimensionless},Sep{dimensionless},Oct{dimensionless},Nov{dimensionless},Dec{dimensionless}
 Site:GroundReflectance,  0.20,  0.20,  0.20,  0.20,  0.20,  0.20,  0.20,  0.20,  0.20,  0.20,  0.20,  0.20
! <Site:GroundReflectance:SnowModifier>, Normal, Daylighting {dimensionless}
 Site:GroundReflectance:SnowModifier,   1.000,   1.000
! <Site:GroundReflectance:Snow>,Jan{dimensionless},Feb{dimensionless},Mar{dimensionless},Apr{dimensionless},May{dimensionless},Jun{dimensionless},Jul{dimensionless},Aug{dimensionless},Sep{dimensionless},Oct{dimensionless},Nov{dimensionless},Dec{dimensionless}
 Site:GroundReflectance:Snow,  0.20,  0.20,  0.20,  0.20,  0.20,  0.20,  0.20,  0.20,  0.20,  0.20,  0.20,  0.20
! <Site:GroundReflectance:Snow:Daylighting>,Jan{dimensionless},Feb{dimensionless},Mar{dimensionless},Apr{dimensionless},May{dimensionless},Jun{dimensionless},Jul{dimensionless},Aug{dimensionless},Sep{dimensionless},Oct{dimensionless},Nov{dimensionless},Dec{dimensionless}
 Site:GroundReflectance:Snow:Daylighting,  0.20,  0.20,  0.20,  0.20,  0.20,  0.20,  0.20,  0.20,  0.20,  0.20,  0.20,  0.20
! <Environment:Weather Station>,Wind Sensor Height Above Ground {m},Wind Speed Profile Exponent {},Wind Speed Profile Boundary Layer Thickness {m},Air Temperature Sensor Height Above Ground {m},Wind Speed Modifier Coefficient-Internal,Temperature Modifier Coefficient-Internal
Environment:Weather Station,10.000,0.140,270.000,1.500,1.586,9.750E-003
! <Site:Location>, Location Name, Latitude {N+/S- Deg}, Longitude {E+/W- Deg},  Time Zone Number {GMT+/-}, Elevation {m},  Standard Pressure at Elevation {Pa}, Standard RhoAir at Elevation
Site:Location,Chicago Ohare Intl Ap IL USA TMY3 WMO#=725300,41.98,-87.92,-6.00,201.00,98934,1.1759
! <Site Water Mains Temperature Information>,Calculation Method{},Water Mains Temperature Schedule Name{},Annual Average Outdoor Air Temperature{C},Maximum Difference In Monthly Average Outdoor Air Temperatures{deltaC},Fixed Default Water Mains Temperature{C}
Site Water Mains Temperature Information,FixedDefault,NA,NA,NA,10.0
! <Building Information>, Building Name,North Axis {deg},Terrain,  Loads Convergence Tolerance Value,Temperature Convergence Tolerance Value,  Solar Distribution,Maximum Number of Warmup Days,Minimum Number of Warmup Days
 Building Information,Professional Building,0.000,Suburbs,4.00000E-002,0.20000,FullInteriorAndExterior,15,6
! <Inside Convection Algorithm>, Algorithm {Simple | TARP | CeilingDiffuser | AdaptiveConvectionAlgorithm}
Inside Convection Algorithm,TARP
! <Outside Convection Algorithm>, Algorithm {SimpleCombined | TARP | MoWitt | DOE-2 | AdaptiveConvectionAlgorithm}
Outside Convection Algorithm,DOE-2
! <Sky Radiance Distribution>, Value {Anisotropic}
Sky Radiance Distribution,Anisotropic
! <Zone Air Solution Algorithm>, Algorithm {ThirdOrderBackwardDifference | AnalyticalSolution | EulerMethod}, Space Heat Balance Sizing, Space Heat Balance Simulation
 Zone Air Solution Algorithm, ThirdOrderBackwardDifference, No, No
! <Zone Air Carbon Dioxide Balance Simulation>, Simulation {Yes/No}, Carbon Dioxide Concentration
 Zone Air Carbon Dioxide Balance Simulation, No,N/A
! <Zone Air Generic Contaminant Balance Simulation>, Simulation {Yes/No}, Generic Contaminant Concentration
 Zone Air Generic Contaminant Balance Simulation, No,N/A
! <Zone Air Mass Flow Balance Simulation>, Enforce Mass Balance, Adjust Zone Mixing and Return {AdjustMixingOnly | AdjustReturnOnly | AdjustMixingThenReturn | AdjustReturnThenMixing | None}, Adjust Zone Infiltration {AddInfiltration | AdjustInfiltration | None}, Infiltration Zones {MixingSourceZonesOnly | AllZones}
 Zone Air Mass Flow Balance Simulation, No,N/A,N/A,N/A
! <HVACSystemRootFindingAlgorithm>, Value {RegulaFalsi | Bisection | BisectionThenRegulaFalsi | RegulaFalsiThenBisection}
 HVACSystemRootFindingAlgorithm, RegulaFalsi
! <Environment:Site Atmospheric Variation>,Wind Speed Profile Exponent {},Wind Speed Profile Boundary Layer Thickness {m},Air Temperature Gradient Coefficient {K/m}
Environment:Site Atmospheric Variation,0.220,370.000,6.500000E-003
! <Shadowing/Sun Position Calculations Annual Simulations>, Shading Calculation Method, Shading Calculation Update Frequency Method, Shading Calculation Update Frequency {days}, Maximum Figures in Shadow Overlap Calculations {}, Polygon Clipping Algorithm, Pixel Counting Resolution, Sky Diffuse Modeling Algorithm, Output External Shading Calculation Results, Disable Self-Shading Within Shading Zone Groups, Disable Self-Shading From Shading Zone Groups to Other Zones
Shadowing/Sun Position Calculations Annual Simulations,PolygonClipping,Periodic,20,15000,SutherlandHodgman,512,SimpleSkyDiffuseModeling,No,No,No
! <Surface Geometry>,Starting Corner,Vertex Input Direction,Coordinate System,Daylight Reference Point Coordinate System,Rectangular (Simple) Surface Coordinate System
 Surface Geometry,UpperLeftCorner,Counterclockwise,RelativeCoordinateSystem,RelativeCoordinateSystem,RelativeToZoneOrigin
! <Surface Heat Transfer Algorithm>, Value {CTF - ConductionTransferFunction | EMPD - MoisturePenetrationDepthConductionTransferFunction | CondFD - ConductionFiniteDifference | HAMT - CombinedHeatAndMoistureFiniteElement} - Description,Inside Surface Max Temperature Limit{C}, Surface Convection Coefficient Lower Limit {W/m2-K}, Surface Convection Coefficient Upper Limit {W/m2-K}
Surface Heat Transfer Algorithm, CTF - ConductionTransferFunction,200,0.10,1000.0
! <Shading Summary>, Number of Fixed Detached Shades, Number of Building Detached Shades, Number of Attached Shades
 Shading Summary,0,0,0
! <Zone Summary>, Number of Zones, Number of Zone Surfaces, Number of SubSurfaces
 Zone Summary,16,176,64
! <Zone Information>,Zone Name,North Axis {deg},Origin X-Coordinate {m},Origin Y-Coordinate {m},Origin Z-Coordinate {m},Centroid X-Coordinate {m},Centroid Y-Coordinate {m},Centroid Z-Coordinate {m},Type,Zone Multiplier,Zone List Multiplier,Minimum X {m},Maximum X {m},Minimum Y {m},Maximum Y {m},Minimum Z {m},Maximum Z {m},Ceiling Height {m},Volume {m3},Zone Inside Convection Algorithm {Simple-Detailed-CeilingDiffuser-TrombeWall},Zone Outside Convection Algorithm {Simple-Detailed-Tarp-MoWitt-DOE-2-BLAST}, Floor Area {m2},Exterior Gross Wall Area {m2},Exterior Net Wall Area {m2},Exterior Window Area {m2}, Number of Surfaces, Number of SubSurfaces, Number of Shading SubSurfaces,  Part of Total Building Area
 Zone Information, LOBBY_0,0.0,0.00,0.00,0.00,-44.33,-51.99,1.50,1,1,1,-47.99,-40.67,-57.75,-46.22,0.00,3.00,3.00,247.39,TARP,DOE-2,82.46,111.87,78.21,33.67,6,4,0,Yes
 Zone Information, CONFERENCE_0,0.0,0.00,0.00,0.00,-172.53,-77.86,1.50,1,1,1,-175.16,-169.90,-81.25,-74.46,0.00,3.00,3.00,103.61,TARP,DOE-2,34.54,71.12,49.72,21.41,6,4,0,Yes
 Zone Information, BREAK_ROOM_0,0.0,0.00,0.00,0.00,-80.17,-92.86,1.50,1,1,1,-83.33,-77.00,-98.66,-87.05,0.00,3.00,3.00,214.94,TARP,DOE-2,71.65,106.40,74.38,32.02,6,4,0,Yes
 Zone Information, STORAGE_0,0.0,0.00,0.00,0.00,-97.44,-110.16,1.50,1,1,1,-100.10,-94.78,-113.64,-106.67,0.00,3.00,3.00,107.57,TARP,DOE-2,35.86,72.54,50.71,21.83,6,4,0,Yes
 Zone Information, LOBBY_1,0.0,0.00,0.00,0.00,-123.15,-9.20,4.50,1,1,1,-128.63,-117.66,-14.88,-3.51,3.00,6.00,3.00,367.41,TARP,DOE-2,122.47,132.82,92.85,39.98,6,4,0,Yes
 Zone Information, CONFERENCE_1,0.0,0.00,0.00,0.00,-193.37,-32.89,4.50,1,1,1,-196.96,-189.77,-37.25,-28.54,3.00,6.00,3.00,183.12,TARP,DOE-2,61.04,94.20,65.85,28.35,6,4,0,Yes
 Zone Information, BREAK_ROOM_1,0.0,0.00,0.00,0.00,-122.47,-103.84,4.50,1,1,1,-124.52,-120.43,-107.32,-100.35,3.00,6.00,3.00,82.24,TARP,DOE-2,27.41,65.15,45.54,19.61,6,4,0,Yes
 Zone Information, MECHANICAL_1,0.0,0.00,0.00,0.00,-73.34,-87.06,4.50,1,1,1,-76.63,-70.06,-90.81,-83.31,3.00,6.00,3.00,143.44,TARP,DOE-2,47.81,83.17,58.14,25.03,6,4,0,Yes
 Zone Information, OFFICE_PRIVATE_1,0.0,0.00,0.00,0.00,-110.64,-77.46,4.50,1,1,1,-112.50,-108.79,-80.79,-74.13,3.00,6.00,3.00,71.03,TARP,DOE-2,23.68,61.01,42.65,18.36,6,4,0,Yes
 Zone Information, LOBBY_2,0.0,0.00,0.00,0.00,-185.17,-44.48,7.50,1,1,1,-190.60,-179.73,-50.11,-38.85,6.00,9.00,3.00,360.86,TARP,DOE-2,120.29,131.63,92.01,39.62,6,4,0,Yes
 Zone Information, CONFERENCE_2,0.0,0.00,0.00,0.00,-28.98,-102.87,7.50,1,1,1,-32.25,-25.72,-108.77,-96.96,6.00,9.00,3.00,225.97,TARP,DOE-2,75.32,108.86,76.10,32.76,6,4,0,Yes
 Zone Information, BREAK_ROOM_2,0.0,0.00,0.00,0.00,-193.46,-61.24,7.50,1,1,1,-196.67,-190.24,-65.22,-57.26,6.00,9.00,3.00,149.05,TARP,DOE-2,49.68,85.08,59.48,25.61,6,4,0,Yes
 Zone Information, MECHANICAL_2,0.0,0.00,0.00,0.00,-26.73,-79.11,7.50,1,1,1,-30.19,-23.28,-84.01,-74.21,6.00,9.00,3.00,198.14,TARP,DOE-2,66.05,99.05,69.24,29.81,6,4,0,Yes
 Zone Information, OFFICE_OPEN_2,0.0,0.00,0.00,0.00,-73.21,-50.95,7.50,1,1,1,-79.51,-66.91,-61.20,-40.70,6.00,9.00,3.00,764.36,TARP,DOE-2,254.79,197.33,137.94,59.39,6,4,0,Yes
 Zone Information, OFFICE_PRIVATE_2,0.0,0.00,0.00,0.00,-11.26,-37.97,7.50,1,1,1,-13.32,-9.19,-40.94,-34.99,6.00,9.00,3.00,70.82,TARP,DOE-2,23.61,59.32,41.47,17.85,6,4,0,Yes
 Zone Information, STORAGE_2,0.0,0.00,0.00,0.00,-178.14,-65.85,7.50,1,1,1,-180.99,-175.28,-69.50,-62.20,6.00,9.00,3.00,121.25,TARP,DOE-2,40.42,76.89,53.75,23.14,6,4,0,Yes
! <Zone Internal Gains Nominal>,Zone Name, Floor Area {m2},# Occupants,Area per Occupant {m2/person},Occupant per Area {person/m2},Interior Lighting {W/m2},Electric Load {W/m2},Gas Load {W/m2},Other Load {W/m2},Hot Water Eq {W/m2},Steam Equipment {W/m2},Sum Loads per Area {W/m2},Outdoor Controlled Baseboard Heat
 Zone Internal Gains Nominal, LOBBY_0,82.46,4.0,20.616,4.851E-002,12.900,3.200,0.000,0.000,0.000,0.000,16.100,No
 Zone Internal Gains Nominal, CONFERENCE_0,34.54,6.0,5.756,0.174,10.800,8.100,0.000,0.000,0.000,0.000,18.900,No
 Zone Internal Gains Nominal, BREAK_ROOM_0,71.65,7.0,10.235,9.770E-002,8.100,15.000,0.000,0.000,0.000,0.000,23.100,No
 Zone Internal Gains Nominal, STORAGE_0,35.86,1.0,35.856,2.789E-002,5.400,1.100,0.000,0.000,0.000,0.000,6.500,No
 Zone Internal Gains Nominal, LOBBY_1,122.47,6.0,20.411,4.899E-002,12.900,3.200,0.000,0.000,0.000,0.000,16.100,No
 Zone Internal Gains Nominal, CONFERENCE_1,61.04,12.0,5.087,0.197,10.800,8.100,0.000,0.000,0.000,0.000,18.900,No
 Zone Internal Gains Nominal, BREAK_ROOM_1,27.41,2.0,13.706,7.296E-002,8.100,15.000,0.000,0.000,0.000,0.000,23.100,No
 Zone Internal Gains Nominal, MECHANICAL_1,47.81,1.0,47.815,2.091E-002,5.400,0.000,0.000,0.000,0.000,0.000,5.400,No
 Zone Internal Gains Nominal, OFFICE_PRIVATE_1,23.68,1.0,23.678,4.223E-002,10.800,8.100,0.000,0.000,0.000,0.000,18.900,No
 Zone Internal Gains Nominal, LOBBY_2,120.29,6.0,20.048,4.988E-002,12.900,3.200,0.000,0.000,0.000,0.000,16.100,No
 Zone Internal Gains Nominal, CONFERENCE_2,75.32,15.0,5.022,0.199,10.800,8.100,0.000,0.000,0.000,0.000,18.900,No
 Zone Internal Gains Nominal, BREAK_ROOM_2,49.68,4.0,12.421,8.051E-002,8.100,15.000,0.000,0.000,0.000,0.000,23.100,No
 Zone Internal Gains Nominal, MECHANICAL_2,66.05,1.0,66.045,1.514E-002,5.400,0.000,0.000,0.000,0.000,0.000,5.400,No
 Zone Internal Gains Nominal, OFFICE_OPEN_2,254.79,12.0,21.232,4.710E-002,10.800,8.100,0.000,0.000,0.000,0.000,18.900,No
 Zone Internal Gains Nominal, OFFICE_PRIVATE_2,23.61,1.0,23.608,4.236E-002,10.800,8.100,0.000,0.000,0.000,0.000,18.900,No
 Zone Internal Gains Nominal, STORAGE_2,40.42,1.0,40.417,2.474E-002,5.400,1.100,0.000,0.000,0.000,0.000,6.500,No
! <People Internal Gains Nominal>,Name,Schedule Name,Zone Name,Zone Floor Area {m2},# Zone Occupants,Number of People {},People/Floor Area {person/m2},Floor Area per person {m2/person},Fraction Radiant,Fraction Convected,Sensible Fraction Calculation,Activity level,ASHRAE 55 Warnings,Carbon Dioxide Generation Rate,Minimum Number of People for All Day Types,Maximum Number of People for All Day Types,Minimum Number of People for Weekdays, Maximum Number of People for Weekdays, Minimum Number of People for Weekends/Holidays, Maximum Number of People for Weekends /Holidays,Minimum Number of People for Summer Design Days, Maximum Number of People for Summer Design Days,Minimum Number of People for Winter Design Days, Maximum Number of People for Winter Design Days
 People Internal Gains Nominal, LOBBY_0_PEOPLE,LOBBY_OCCUPANCY,LOBBY_0,82.46,4.0,4.0,4.851E-002,20.616,0.300,0.700,0.100,LOBBY_ACTIVITY,No,3.8200E-008,0.8,0.8,0.8,0.8,0.8,0.8,0.8,0.8,0.8,0.8,
 People Internal Gains Nominal, CONFERENCE_0_PEOPLE,CONFERENCE_OCCUPANCY,CONFERENCE_0,34.54,6.0,6.0,0.174,5.756,0.300,0.700,0.100,CONFERENCE_ACTIVITY,No,3.8200E-008,0.0,6.0,0.0,6.0,0.0,0.6,0.0,0.0,0.0,0.0,
 People Internal Gains Nominal, BREAK_ROOM_0_PEOPLE,BREAK_ROOM_OCCUPANCY,BREAK_ROOM_0,71.65,7.0,7.0,9.770E-002,10.235,0.300,0.700,0.100,BREAK_ROOM_ACTIVITY,No,3.8200E-008,1.4,1.4,1.4,1.4,1.4,1.4,1.4,1.4,1.4,1.4,
 People Internal Gains Nominal, STORAGE_0_PEOPLE,STORAGE_OCCUPANCY,STORAGE_0,35.86,1.0,1.0,2.789E-002,35.856,0.300,0.700,0.100,STORAGE_ACTIVITY,No,3.8200E-008,0.2,0.2,0.2,0.2,0.2,0.2,0.2,0.2,0.2,0.2,
 People Internal Gains Nominal, LOBBY_1_PEOPLE,LOBBY_OCCUPANCY,LOBBY_1,122.47,6.0,6.0,4.899E-002,20.411,0.300,0.700,0.100,LOBBY_ACTIVITY,No,3.8200E-008,1.2,1.2,1.2,1.2,1.2,1.2,1.2,1.2,1.2,1.2,
 People Internal Gains Nominal, CONFERENCE_1_PEOPLE,CONFERENCE_OCCUPANCY,CONFERENCE_1,61.04,12.0,12.0,0.197,5.087,0.300,0.700,0.100,CONFERENCE_ACTIVITY,No,3.8200E-008,0.0,12.0,0.0,12.0,0.0,1.2,0.0,0.0,0.0,0.0,
 People Internal Gains Nominal, BREAK_ROOM_1_PEOPLE,BREAK_ROOM_OCCUPANCY,BREAK_ROOM_1,27.41,2.0,2.0,7.296E-002,13.706,0.300,0.700,0.100,BREAK_ROOM_ACTIVITY,No,3.8200E-008,0.4,0.4,0.4,0.4,0.4,0.4,0.4,0.4,0.4,0.4,
 People Internal Gains Nominal, MECHANICAL_1_PEOPLE,MECHANICAL_OCCUPANCY,MECHANICAL_1,47.81,1.0,1.0,2.091E-002,47.815,0.300,0.700,0.100,MECHANICAL_ACTIVITY,No,3.8200E-008,0.2,0.2,0.2,0.2,0.2,0.2,0.2,0.2,0.2,0.2,
 People Internal Gains Nominal, OFFICE_PRIVATE_1_PEOPLE,OFFICE_OPEN_OCCUPANCY,OFFICE_PRIVATE_1,23.68,1.0,1.0,4.223E-002,23.678,0.300,0.700,0.100,OFFICE_OPEN_ACTIVITY,No,3.8200E-008,0.0,1.0,0.0,1.0,0.0,0.1,0.0,0.0,0.0,0.0,
 People Internal Gains Nominal, LOBBY_2_PEOPLE,LOBBY_OCCUPANCY,LOBBY_2,120.29,6.0,6.0,4.988E-002,20.048,0.300,0.700,0.100,LOBBY_ACTIVITY,No,3.8200E-008,1.2,1.2,1.2,1.2,1.2,1.2,1.2,1.2,1.2,1.2,
 People Internal Gains Nominal, CONFERENCE_2_PEOPLE,CONFERENCE_OCCUPANCY,CONFERENCE_2,75.32,15.0,15.0,0.199,5.022,0.300,0.700,0.100,CONFERENCE_ACTIVITY,No,3.8200E-008,0.0,15.0,0.0,15.0,0.0,1.5,0.0,0.0,0.0,0.0,
 People Internal Gains Nominal, BREAK_ROOM_2_PEOPLE,BREAK_ROOM_OCCUPANCY,BREAK_ROOM_2,49.68,4.0,4.0,8.051E-002,12.421,0.300,0.700,0.100,BREAK_ROOM_ACTIVITY,No,3.8200E-008,0.8,0.8,0.8,0.8,0.8,0.8,0.8,0.8,0.8,0.8,
 People Internal Gains Nominal, MECHANICAL_2_PEOPLE,MECHANICAL_OCCUPANCY,MECHANICAL_2,66.05,1.0,1.0,1.514E-002,66.045,0.300,0.700,0.100,MECHANICAL_ACTIVITY,No,3.8200E-008,0.2,0.2,0.2,0.2,0.2,0.2,0.2,0.2,0.2,0.2,
 People Internal Gains Nominal, OFFICE_OPEN_2_PEOPLE,OFFICE_OPEN_OCCUPANCY,OFFICE_OPEN_2,254.79,12.0,12.0,4.710E-002,21.232,0.300,0.700,0.100,OFFICE_OPEN_ACTIVITY,No,3.8200E-008,0.0,12.0,0.0,12.0,0.0,1.2,0.0,0.0,0.0,0.0,
 People Internal Gains Nominal, OFFICE_PRIVATE_2_PEOPLE,OFFICE_OPEN_OCCUPANCY,OFFICE_PRIVATE_2,23.61,1.0,1.0,4.236E-002,23.608,0.300,0.700,0.100,OFFICE_OPEN_ACTIVITY,No,3.8200E-008,0.0,1.0,0.0,1.0,0.0,0.1,0.0,0.0,0.0,0.0,
 People Internal Gains Nominal, STORAGE_2_PEOPLE,STORAGE_OCCUPANCY,STORAGE_2,40.42,1.0,1.0,2.474E-002,40.417,0.300,0.700,0.100,STORAGE_ACTIVITY,No,3.8200E-008,0.2,0.2,0.2,0.2,0.2,0.2,0.2,0.2,0.2,0.2,
! <Lights Internal Gains Nominal>,Name,Schedule Name,Zone Name,Zone Floor Area {m2},# Zone Occupants,Lighting Level {W},Lights/Floor Area {W/m2},Lights per person {W/person},Fraction Return Air,Fraction Radiant,Fraction Short Wave,Fraction Convected,Fraction Replaceable,End-Use, Minimum Lighting Level for All Day Types {W},Maximum Lighting Level for All Day Types {W},Minimum Lighting Level for Weekdays {W}, Maximum Lighting Level for Weekdays {W},Minimum Lighting Level for Weekends/Holidays {W}, Maximum Lighting Level for Weekends /Holidays {W},Minimum Lighting Level for Summer Design Days {W}, Maximum Lighting Level for Summer Design Days {W},Minimum Lighting Level for Winter Design Days {W}, Maximum Lighting Level for Winter Design Days {W}
 Lights Internal Gains Nominal, LOBBY_0_LIGHTS,LOBBY_LIGHTING,LOBBY_0,82.46,4.0,1063.774,12.900,265.943,0.000,0.300,0.200,0.500,1.000,General,0.000,1063.774,106.377,1063.8,0.000,212.755,0.000,0.000,0.000,0.000
 Lights Internal Gains Nominal, CONFERENCE_0_LIGHTS,CONFERENCE_LIGHTING,CONFERENCE_0,34.54,6.0,373.012,10.800,62.169,0.000,0.300,0.200,0.500,1.000,General,0.000,373.012,37.301,373.0,0.000,74.602,0.000,0.000,0.000,0.000
 Lights Internal Gains Nominal, BREAK_ROOM_0_LIGHTS,BREAK_ROOM_LIGHTING,BREAK_ROOM_0,71.65,7.0,580.333,8.100,82.905,0.000,0.300,0.200,0.500,1.000,General,0.000,580.333,58.033,580.3,0.000,116.067,0.000,0.000,0.000,0.000
 Lights Internal Gains Nominal, STORAGE_0_LIGHTS,STORAGE_LIGHTING,STORAGE_0,35.86,1.0,193.620,5.400,193.620,0.000,0.300,0.200,0.500,1.000,General,0.000,193.620,19.362,193.6,0.000,38.724,0.000,0.000,0.000,0.000
 Lights Internal Gains Nominal, LOBBY_1_LIGHTS,LOBBY_LIGHTING,LOBBY_1,122.47,6.0,1579.843,12.900,263.307,0.000,0.300,0.200,0.500,1.000,General,0.000,1579.843,157.984,1579.8,0.000,315.969,0.000,0.000,0.000,0.000
 Lights Internal Gains Nominal, CONFERENCE_1_LIGHTS,CONFERENCE_LIGHTING,CONFERENCE_1,61.04,12.0,659.240,10.800,54.937,0.000,0.300,0.200,0.500,1.000,General,0.000,659.240,65.924,659.2,0.000,131.848,0.000,0.000,0.000,0.000
 Lights Internal Gains Nominal, BREAK_ROOM_1_LIGHTS,BREAK_ROOM_LIGHTING,BREAK_ROOM_1,27.41,2.0,222.035,8.100,111.018,0.000,0.300,0.200,0.500,1.000,General,0.000,222.035,22.204,222.0,0.000,44.407,0.000,0.000,0.000,0.000
 Lights Internal Gains Nominal, MECHANICAL_1_LIGHTS,MECHANICAL_LIGHTING,MECHANICAL_1,47.81,1.0,258.200,5.400,258.200,0.000,0.300,0.200,0.500,1.000,General,0.000,258.200,25.820,258.2,0.000,51.640,0.000,0.000,0.000,0.000
 Lights Internal Gains Nominal, OFFICE_PRIVATE_1_LIGHTS,OFFICE_OPEN_LIGHTING,OFFICE_PRIVATE_1,23.68,1.0,255.717,10.800,255.717,0.000,0.300,0.200,0.500,1.000,General,0.000,255.717,25.572,255.7,0.000,51.143,0.000,0.000,0.000,0.000
 Lights Internal Gains Nominal, LOBBY_2_LIGHTS,LOBBY_LIGHTING,LOBBY_2,120.29,6.0,1551.696,12.900,258.616,0.000,0.300,0.200,0.500,1.000,General,0.000,1551.696,155.170,1551.7,0.000,310.339,0.000,0.000,0.000,0.000
 Lights Internal Gains Nominal, CONFERENCE_2_LIGHTS,CONFERENCE_LIGHTING,CONFERENCE_2,75.32,15.0,813.483,10.800,54.232,0.000,0.300,0.200,0.500,1.000,General,0.000,813.483,81.348,813.5,0.000,162.697,0.000,0.000,0.000,0.000
 Lights Internal Gains Nominal, BREAK_ROOM_2_LIGHTS,BREAK_ROOM_LIGHTING,BREAK_ROOM_2,49.68,4.0,402.432,8.100,100.608,0.000,0.300,0.200,0.500,1.000,General,0.000,402.432,40.243,402.4,0.000,80.486,0.000,0.000,0.000,0.000
 Lights Internal Gains Nominal, MECHANICAL_2_LIGHTS,MECHANICAL_LIGHTING,MECHANICAL_2,66.05,1.0,356.643,5.400,356.643,0.000,0.300,0.200,0.500,1.000,General,0.000,356.643,35.664,356.6,0.000,71.329,0.000,0.000,0.000,0.000
 Lights Internal Gains Nominal, OFFICE_OPEN_2_LIGHTS,OFFICE_OPEN_LIGHTING,OFFICE_OPEN_2,254.79,12.0,2751.682,10.800,229.307,0.000,0.300,0.200,0.500,1.000,General,0.000,2751.682,275.168,2751.7,0.000,550.336,0.000,0.000,0.000,0.000
 Lights Internal Gains Nominal, OFFICE_PRIVATE_2_LIGHTS,OFFICE_OPEN_LIGHTING,OFFICE_PRIVATE_2,23.61,1.0,254.961,10.800,254.961,0.000,0.300,0.200,0.500,1.000,General,0.000,254.961,25.496,255.0,0.000,50.992,0.000,0.000,0.000,0.000
 Lights Internal Gains Nominal, STORAGE_2_LIGHTS,STORAGE_LIGHTING,STORAGE_2,40.42,1.0,218.252,5.400,218.252,0.000,0.300,0.200,0.500,1.000,General,0.000,218.252,21.825,218.3,0.000,43.650,0.000,0.000,0.000,0.000
! <ElectricEquipment Internal Gains Nominal>,Name,Schedule Name,Zone Name,Zone Floor Area {m2},# Zone Occupants,Equipment Level {W},Equipment/Floor Area {W/m2},Equipment per person {W/person},Fraction Latent,Fraction Radiant,Fraction Lost,Fraction Convected,End-Use SubCategory,Minimum Equipment Level for All Day Types {W},Maximum Equipment Level for All Day Types {W},Minimum Equipment Level for Weekdays {W}, Maximum Equipment Level for Weekdays {W},Minimum Equipment Level for Weekends/Holidays {W}, Maximum Equipment Level for Weekends /Holidays {W},Minimum Equipment Level for Summer Design Days {W}, Maximum Equipment Level for Summer Design Days {W},Minimum Equipment Level for Winter Design Days {W}, Maximum Equipment Level for Winter Design Days {W}
 ElectricEquipment Internal Gains Nominal, LOBBY_0_EQUIPMENT,LOBBY_EQUIPMENT,LOBBY_0,82.46,4.0,263.882,3.200,65.970,0.100,0.200,0.000,0.700,General,0.000,211.106,79.165,211.106,0.000,79.165,0.000,0.000,0.000,0.000
 ElectricEquipment Internal Gains Nominal, CONFERENCE_0_EQUIPMENT,CONFERENCE_EQUIPMENT,CONFERENCE_0,34.54,6.0,279.759,8.100,46.627,0.100,0.200,0.000,0.700,General,0.000,223.807,83.928,223.807,0.000,83.928,0.000,0.000,0.000,0.000
 ElectricEquipment Internal Gains Nominal, BREAK_ROOM_0_EQUIPMENT,BREAK_ROOM_EQUIPMENT,BREAK_ROOM_0,71.65,7.0,1074.691,15.000,153.527,0.100,0.200,0.000,0.700,General,0.000,859.753,322.407,859.753,0.000,322.407,0.000,0.000,0.000,0.000
 ElectricEquipment Internal Gains Nominal, STORAGE_0_EQUIPMENT,STORAGE_EQUIPMENT,STORAGE_0,35.86,1.0,39.441,1.100,39.441,0.100,0.200,0.000,0.700,General,0.000,31.553,11.832,31.553,0.000,11.832,0.000,0.000,0.000,0.000
 ElectricEquipment Internal Gains Nominal, LOBBY_1_EQUIPMENT,LOBBY_EQUIPMENT,LOBBY_1,122.47,6.0,391.899,3.200,65.316,0.100,0.200,0.000,0.700,General,0.000,313.519,117.570,313.519,0.000,117.570,0.000,0.000,0.000,0.000
 ElectricEquipment Internal Gains Nominal, CONFERENCE_1_EQUIPMENT,CONFERENCE_EQUIPMENT,CONFERENCE_1,61.04,12.0,494.430,8.100,41.203,0.100,0.200,0.000,0.700,General,0.000,395.544,148.329,395.544,0.000,148.329,0.000,0.000,0.000,0.000
 ElectricEquipment Internal Gains Nominal, BREAK_ROOM_1_EQUIPMENT,BREAK_ROOM_EQUIPMENT,BREAK_ROOM_1,27.41,2.0,411.177,15.000,205.588,0.100,0.200,0.000,0.700,General,0.000,328.941,123.353,328.941,0.000,123.353,0.000,0.000,0.000,0.000
 ElectricEquipment Internal Gains Nominal, MECHANICAL_1_EQUIPMENT,MECHANICAL_EQUIPMENT,MECHANICAL_1,47.81,1.0,0.000,0.000,0.000,0.100,0.200,0.000,0.700,General,0.000,0.000,0.000,0.000,0.000,0.000,0.000,0.000,0.000,0.000
 ElectricEquipment Internal Gains Nominal, OFFICE_PRIVATE_1_EQUIPMENT,OFFICE_OPEN_EQUIPMENT,OFFICE_PRIVATE_1,23.68,1.0,191.788,8.100,191.788,0.100,0.200,0.000,0.700,General,0.000,153.430,57.536,153.430,0.000,57.536,0.000,0.000,0.000,0.000
 ElectricEquipment Internal Gains Nominal, LOBBY_2_EQUIPMENT,LOBBY_EQUIPMENT,LOBBY_2,120.29,6.0,384.917,3.200,64.153,0.100,0.200,0.000,0.700,General,0.000,307.933,115.475,307.933,0.000,115.475,0.000,0.000,0.000,0.000
 ElectricEquipment Internal Gains Nominal, CONFERENCE_2_EQUIPMENT,CONFERENCE_EQUIPMENT,CONFERENCE_2,75.32,15.0,610.112,8.100,40.674,0.100,0.200,0.000,0.700,General,0.000,488.090,183.034,488.090,0.000,183.034,0.000,0.000,0.000,0.000
 ElectricEquipment Internal Gains Nominal, BREAK_ROOM_2_EQUIPMENT,BREAK_ROOM_EQUIPMENT,BREAK_ROOM_2,49.68,4.0,745.245,15.000,186.311,0.100,0.200,0.000,0.700,General,0.000,596.196,223.573,596.196,0.000,223.573,0.000,0.000,0.000,0.000
 ElectricEquipment Internal Gains Nominal, MECHANICAL_2_EQUIPMENT,MECHANICAL_EQUIPMENT,MECHANICAL_2,66.05,1.0,0.000,0.000,0.000,0.100,0.200,0.000,0.700,General,0.000,0.000,0.000,0.000,0.000,0.000,0.000,0.000,0.000,0.000
 ElectricEquipment Internal Gains Nominal, OFFICE_OPEN_2_EQUIPMENT,OFFICE_OPEN_EQUIPMENT,OFFICE_OPEN_2,254.79,12.0,2063.762,8.100,171.980,0.100,0.200,0.000,0.700,General,0.000,1651.009,619.128,1651.009,0.000,619.128,0.000,0.000,0.000,0.000
 ElectricEquipment Internal Gains Nominal, OFFICE_PRIVATE_2_EQUIPMENT,OFFICE_OPEN_EQUIPMENT,OFFICE_PRIVATE_2,23.61,1.0,191.221,8.100,191.221,0.100,0.200,0.000,0.700,General,0.000,152.977,57.366,152.977,0.000,57.366,0.000,0.000,0.000,0.000
 ElectricEquipment Internal Gains Nominal, STORAGE_2_EQUIPMENT,STORAGE_EQUIPMENT,STORAGE_2,40.42,1.0,44.459,1.100,44.459,0.100,0.200,0.000,0.700,General,0.000,35.567,13.338,35.567,0.000,13.338,0.000,0.000,0.000,0.000
! <Enclosure/Window Adjacency Daylighting Counts>, Enclosure Name, Number of Exterior Windows, Number of Exterior Windows in Adjacent Enclosures
Enclosure/Window Adjacency Daylighting Counts, LOBBY_0,4,0
Enclosure/Window Adjacency Daylighting Counts, CONFERENCE_0,4,0
Enclosure/Window Adjacency Daylighting Counts, BREAK_ROOM_0,4,0
Enclosure/Window Adjacency Daylighting Counts, LOBBY_1,4,0
Enclosure/Window Adjacency Daylighting Counts, CONFERENCE_1,4,0
Enclosure/Window Adjacency Daylighting Counts, BREAK_ROOM_1,4,0
Enclosure/Window Adjacency Daylighting Counts, OFFICE_PRIVATE_1,4,0
Enclosure/Window Adjacency Daylighting Counts, LOBBY_2,4,0
Enclosure/Window Adjacency Daylighting Counts, CONFERENCE_2,4,0
Enclosure/Window Adjacency Daylighting Counts, BREAK_ROOM_2,4,0
Enclosure/Window Adjacency Daylighting Counts, OFFICE_OPEN_2,4,0
Enclosure/Window Adjacency Daylighting Counts, OFFICE_PRIVATE_2,4,0
! <Enclosure/Window Adjacency Daylighting Matrix>, Enclosure Name, Number of Adjacent Enclosures with Windows,Adjacent Enclosure Names - 1st 100 (max)
Enclosure/Window Adjacency Daylighting Matrix, LOBBY_0,0
Enclosure/Window Adjacency Daylighting Matrix, CONFERENCE_0,0
Enclosure/Window Adjacency Daylighting Matrix, BREAK_ROOM_0,0
Enclosure/Window Adjacency Daylighting Matrix, LOBBY_1,0
Enclosure/Window Adjacency Daylighting Matrix, CONFERENCE_1,0
Enclosure/Window Adjacency Daylighting Matrix, BREAK_ROOM_1,0
Enclosure/Window Adjacency Daylighting Matrix, OFFICE_PRIVATE_1,0
Enclosure/Window Adjacency Daylighting Matrix, LOBBY_2,0
Enclosure/Window Adjacency Daylighting Matrix, CONFERENCE_2,0
Enclosure/Window Adjacency Daylighting Matrix, BREAK_ROOM_2,0
Enclosure/Window Adjacency Daylighting Matrix, OFFICE_OPEN_2,0
Enclosure/Window Adjacency Daylighting Matrix, OFFICE_PRIVATE_2,0
! <ZoneInfiltration Airflow Stats Nominal>,Name,Schedule Name,Zone Name, Zone Floor Area {m2}, # Zone Occupants,Design Volume Flow Rate {m3/s},Volume Flow Rate/Floor Area {m3/s-m2},Volume Flow Rate/Exterior Surface Area {m3/s-m2},ACH - Air Changes per Hour,Equation A - Constant Term Coefficient {},Equation B - Temperature Term Coefficient {1/C},Equation C - Velocity Term Coefficient {s/m}, Equation D - Velocity Squared Term Coefficient {s2/m2}
 ZoneInfiltration Airflow Stats Nominal, LOBBY_0_INFILTRATION,LOBBY_0_INFILTRATION_SCHEDULE,LOBBY_0,82.46,4.0,2.062E-002,2.500E-004,7.448E-005,0.300,1.000,0.960,0.120,0.000
 ZoneInfiltration Airflow Stats Nominal, CONFERENCE_0_INFILTRATION,CONFERENCE_0_INFILTRATION_SCHEDULE,CONFERENCE_0,34.54,6.0,8.635E-003,2.500E-004,6.159E-005,0.300,1.000,0.960,0.120,0.000
 ZoneInfiltration Airflow Stats Nominal, BREAK_ROOM_0_INFILTRATION,BREAK_ROOM_0_INFILTRATION_SCHEDULE,BREAK_ROOM_0,71.65,7.0,1.791E-002,2.500E-004,7.174E-005,0.300,1.000,0.960,0.120,0.000
 ZoneInfiltration Airflow Stats Nominal, STORAGE_0_INFILTRATION,STORAGE_0_INFILTRATION_SCHEDULE,STORAGE_0,35.86,1.0,8.964E-003,2.500E-004,6.214E-005,0.300,1.000,0.960,0.120,0.000
 ZoneInfiltration Airflow Stats Nominal, LOBBY_1_INFILTRATION,LOBBY_1_INFILTRATION_SCHEDULE,LOBBY_1,122.47,6.0,3.062E-002,2.500E-004,8.105E-005,0.300,1.000,0.960,0.120,0.000
 ZoneInfiltration Airflow Stats Nominal, CONFERENCE_1_INFILTRATION,CONFERENCE_1_INFILTRATION_SCHEDULE,CONFERENCE_1,61.04,12.0,1.526E-002,2.500E-004,7.056E-005,0.300,1.000,0.960,0.120,0.000
 ZoneInfiltration Airflow Stats Nominal, BREAK_ROOM_1_INFILTRATION,BREAK_ROOM_1_INFILTRATION_SCHEDULE,BREAK_ROOM_1,27.41,2.0,6.853E-003,2.500E-004,5.712E-005,0.300,1.000,0.960,0.120,0.000
 ZoneInfiltration Airflow Stats Nominal, MECHANICAL_1_INFILTRATION,MECHANICAL_1_INFILTRATION_SCHEDULE,MECHANICAL_1,47.81,1.0,1.195E-002,2.500E-004,6.686E-005,0.300,1.000,0.960,0.120,0.000
 ZoneInfiltration Airflow Stats Nominal, OFFICE_PRIVATE_1_INFILTRATION,OFFICE_PRIVATE_1_INFILTRATION_SCHEDULE,OFFICE_PRIVATE_1,23.68,1.0,5.919E-003,2.500E-004,5.462E-005,0.300,1.000,0.960,0.120,0.000
 ZoneInfiltration Airflow Stats Nominal, LOBBY_2_INFILTRATION,LOBBY_2_INFILTRATION_SCHEDULE,LOBBY_2,120.29,6.0,3.007E-002,2.500E-004,8.079E-005,0.300,1.000,0.960,0.120,0.000
 ZoneInfiltration Airflow Stats Nominal, CONFERENCE_2_INFILTRATION,CONFERENCE_2_INFILTRATION_SCHEDULE,CONFERENCE_2,75.32,15.0,1.883E-002,2.500E-004,7.257E-005,0.300,1.000,0.960,0.120,0.000
 ZoneInfiltration Airflow Stats Nominal, BREAK_ROOM_2_INFILTRATION,BREAK_ROOM_2_INFILTRATION_SCHEDULE,BREAK_ROOM_2,49.68,4.0,1.242E-002,2.500E-004,6.734E-005,0.300,1.000,0.960,0.120,0.000
 ZoneInfiltration Airflow Stats Nominal, MECHANICAL_2_INFILTRATION,MECHANICAL_2_INFILTRATION_SCHEDULE,MECHANICAL_2,66.05,1.0,1.651E-002,2.500E-004,7.143E-005,0.300,1.000,0.960,0.120,0.000
 ZoneInfiltration Airflow Stats Nominal, OFFICE_OPEN_2_INFILTRATION,OFFICE_OPEN_2_INFILTRATION_SCHEDULE,OFFICE_OPEN_2,254.79,12.0,6.370E-002,2.500E-004,9.011E-005,0.300,1.000,0.960,0.120,0.000
 ZoneInfiltration Airflow Stats Nominal, OFFICE_PRIVATE_2_INFILTRATION,OFFICE_PRIVATE_2_INFILTRATION_SCHEDULE,OFFICE_PRIVATE_2,23.61,1.0,5.902E-003,2.500E-004,5.540E-005,0.300,1.000,0.960,0.120,0.000
 ZoneInfiltration Airflow Stats Nominal, STORAGE_2_INFILTRATION,STORAGE_2_INFILTRATION_SCHEDULE,STORAGE_2,40.42,1.0,1.010E-002,2.500E-004,6.406E-005,0.300,1.000,0.960,0.120,0.000
! <AirFlow Model>, Simple
 AirFlow Model, Simple
! <RoomAir Model>, Zone Name, Mixing/Mundt/UCSDDV/UCSDCV/UCSDUFI/UCSDUFE/User Defined
RoomAir Model,LOBBY_0,Mixing/Well-Stirred
RoomAir Model,CONFERENCE_0,Mixing/Well-Stirred
RoomAir Model,BREAK_ROOM_0,Mixing/Well-Stirred
RoomAir Model,STORAGE_0,Mixing/Well-Stirred
RoomAir Model,LOBBY_1,Mixing/Well-Stirred
RoomAir Model,CONFERENCE_1,Mixing/Well-Stirred
RoomAir Model,BREAK_ROOM_1,Mixing/Well-Stirred
RoomAir Model,MECHANICAL_1,Mixing/Well-Stirred
RoomAir Model,OFFICE_PRIVATE_1,Mixing/Well-Stirred
RoomAir Model,LOBBY_2,Mixing/Well-Stirred
RoomAir Model,CONFERENCE_2,Mixing/Well-Stirred
RoomAir Model,BREAK_ROOM_2,Mixing/Well-Stirred
RoomAir Model,MECHANICAL_2,Mixing/Well-Stirred
RoomAir Model,OFFICE_OPEN_2,Mixing/Well-Stirred
RoomAir Model,OFFICE_PRIVATE_2,Mixing/Well-Stirred
RoomAir Model,STORAGE_2,Mixing/Well-Stirred
! <AirflowNetwork Model:Control>, No Multizone or Distribution/Multizone with Distribution/Multizone without Distribution/Multizone with Distribution only during Fan Operation
AirflowNetwork Model:Control,NoMultizoneOrDistribution
! <Zone Volume Capacitance Multiplier>, Sensible Heat Capacity Multiplier, Moisture Capacity Multiplier, Carbon Dioxide Capacity Multiplier, Generic Contaminant Capacity Multiplier
Zone Volume Capacitance Multiplier,   1.000 ,   1.000,   1.000,   1.000
! <Component Sizing Information>, Component Type, Component Name, Input Field Description, Value
 Component Sizing Information, AirTerminal:SingleDuct:VAV:Reheat, LOBBY_0_Z1_VAVTERMINAL, User-Specified Maximum Air Flow Rate [m3/s], 0.41232
 Component Sizing Information, AirTerminal:SingleDuct:VAV:Reheat, LOBBY_0_Z1_VAVTERMINAL, Design Size Constant Minimum Air Flow Fraction, 0.20000
 Component Sizing Information, AirTerminal:SingleDuct:VAV:Reheat, LOBBY_0_Z1_VAVTERMINAL, User-Specified Constant Minimum Air Flow Fraction, 0.20000
 Component Sizing Information, AirTerminal:SingleDuct:VAV:Reheat, LOBBY_0_Z1_VAVTERMINAL, Design Size Minimum Air Flow Rate [m3/s], 8.24636E-002
 Component Sizing Information, AirTerminal:SingleDuct:VAV:Reheat, LOBBY_0_Z1_VAVTERMINAL, Design Size Maximum Flow per Zone Floor Area during Reheat [m3/s-m2], 1.00001E-003
 Component Sizing Information, AirTerminal:SingleDuct:VAV:Reheat, LOBBY_0_Z1_VAVTERMINAL, Design Size Maximum Flow Fraction during Reheat [], 0.20000
 Component Sizing Information, AirTerminal:SingleDuct:VAV:Reheat, LOBBY_0_Z1_VAVTERMINAL, User-Specified Maximum Reheat Water Flow Rate [m3/s], 6.59709
 Component Sizing Information, Coil:Heating:Electric, LOBBY_0_Z1_REHEATCOIL, User-Specified Nominal Capacity [W], 1979.12639
 Component Sizing Information, AirTerminal:SingleDuct:VAV:Reheat, CONFERENCE_0_Z2_VAVTERMINAL, User-Specified Maximum Air Flow Rate [m3/s], 0.17269
 Component Sizing Information, AirTerminal:SingleDuct:VAV:Reheat, CONFERENCE_0_Z2_VAVTERMINAL, Design Size Constant Minimum Air Flow Fraction, 0.20000
 Component Sizing Information, AirTerminal:SingleDuct:VAV:Reheat, CONFERENCE_0_Z2_VAVTERMINAL, User-Specified Constant Minimum Air Flow Fraction, 0.20000
 Component Sizing Information, AirTerminal:SingleDuct:VAV:Reheat, CONFERENCE_0_Z2_VAVTERMINAL, Design Size Minimum Air Flow Rate [m3/s], 3.45384E-002
 Component Sizing Information, AirTerminal:SingleDuct:VAV:Reheat, CONFERENCE_0_Z2_VAVTERMINAL, Design Size Maximum Flow per Zone Floor Area during Reheat [m3/s-m2], 1.00001E-003
 Component Sizing Information, AirTerminal:SingleDuct:VAV:Reheat, CONFERENCE_0_Z2_VAVTERMINAL, Design Size Maximum Flow Fraction during Reheat [], 0.20000
 Component Sizing Information, AirTerminal:SingleDuct:VAV:Reheat, CONFERENCE_0_Z2_VAVTERMINAL, User-Specified Maximum Reheat Water Flow Rate [m3/s], 2.76307
 Component Sizing Information, Coil:Heating:Electric, CONFERENCE_0_Z2_REHEATCOIL, User-Specified Nominal Capacity [W], 828.92205
 Component Sizing Information, AirTerminal:SingleDuct:VAV:Reheat, BREAK_ROOM_0_Z3_VAVTERMINAL, User-Specified Maximum Air Flow Rate [m3/s], 0.35823
 Component Sizing Information, AirTerminal:SingleDuct:VAV:Reheat, BREAK_ROOM_0_Z3_VAVTERMINAL, Design Size Constant Minimum Air Flow Fraction, 0.20000
 Component Sizing Information, AirTerminal:SingleDuct:VAV:Reheat, BREAK_ROOM_0_Z3_VAVTERMINAL, User-Specified Constant Minimum Air Flow Fraction, 0.20000
 Component Sizing Information, AirTerminal:SingleDuct:VAV:Reheat, BREAK_ROOM_0_Z3_VAVTERMINAL, Design Size Minimum Air Flow Rate [m3/s], 7.16462E-002
 Component Sizing Information, AirTerminal:SingleDuct:VAV:Reheat, BREAK_ROOM_0_Z3_VAVTERMINAL, Design Size Maximum Flow per Zone Floor Area during Reheat [m3/s-m2], 1.00000E-003
 Component Sizing Information, AirTerminal:SingleDuct:VAV:Reheat, BREAK_ROOM_0_Z3_VAVTERMINAL, Design Size Maximum Flow Fraction during Reheat [], 0.20000
 Component Sizing Information, AirTerminal:SingleDuct:VAV:Reheat, BREAK_ROOM_0_Z3_VAVTERMINAL, User-Specified Maximum Reheat Water Flow Rate [m3/s], 5.73169
 Component Sizing Information, Coil:Heating:Electric, BREAK_ROOM_0_Z3_REHEATCOIL, User-Specified Nominal Capacity [W], 1719.50848
 Component Sizing Information, AirTerminal:SingleDuct:VAV:Reheat, STORAGE_0_Z4_VAVTERMINAL, User-Specified Maximum Air Flow Rate [m3/s], 0.17928
 Component Sizing Information, AirTerminal:SingleDuct:VAV:Reheat, STORAGE_0_Z4_VAVTERMINAL, Design Size Constant Minimum Air Flow Fraction, 0.20000
 Component Sizing Information, AirTerminal:SingleDuct:VAV:Reheat, STORAGE_0_Z4_VAVTERMINAL, User-Specified Constant Minimum Air Flow Fraction, 0.20000
 Component Sizing Information, AirTerminal:SingleDuct:VAV:Reheat, STORAGE_0_Z4_VAVTERMINAL, Design Size Minimum Air Flow Rate [m3/s], 3.58552E-002
 Component Sizing Information, AirTerminal:SingleDuct:VAV:Reheat, STORAGE_0_Z4_VAVTERMINAL, Design Size Maximum Flow per Zone Floor Area during Reheat [m3/s-m2], 9.99988E-004
 Component Sizing Information, AirTerminal:SingleDuct:VAV:Reheat, STORAGE_0_Z4_VAVTERMINAL, Design Size Maximum Flow Fraction during Reheat [], 0.20000
 Component Sizing Information, AirTerminal:SingleDuct:VAV:Reheat, STORAGE_0_Z4_VAVTERMINAL, User-Specified Maximum Reheat Water Flow Rate [m3/s], 2.86842
 Component Sizing Information, Coil:Heating:Electric, STORAGE_0_Z4_REHEATCOIL, User-Specified Nominal Capacity [W], 860.52502
 Component Sizing Information, AirTerminal:SingleDuct:VAV:Reheat, LOBBY_1_Z5_VAVTERMINAL, User-Specified Maximum Air Flow Rate [m3/s], 0.61235
 Component Sizing Information, AirTerminal:SingleDuct:VAV:Reheat, LOBBY_1_Z5_VAVTERMINAL, Design Size Constant Minimum Air Flow Fraction, 0.20000
 Component Sizing Information, AirTerminal:SingleDuct:VAV:Reheat, LOBBY_1_Z5_VAVTERMINAL, User-Specified Constant Minimum Air Flow Fraction, 0.20000
 Component Sizing Information, AirTerminal:SingleDuct:VAV:Reheat, LOBBY_1_Z5_VAVTERMINAL, Design Size Minimum Air Flow Rate [m3/s], 0.12247
 Component Sizing Information, AirTerminal:SingleDuct:VAV:Reheat, LOBBY_1_Z5_VAVTERMINAL, Design Size Maximum Flow per Zone Floor Area during Reheat [m3/s-m2], 1.00001E-003
 Component Sizing Information, AirTerminal:SingleDuct:VAV:Reheat, LOBBY_1_Z5_VAVTERMINAL, Design Size Maximum Flow Fraction during Reheat [], 0.20000
 Component Sizing Information, AirTerminal:SingleDuct:VAV:Reheat, LOBBY_1_Z5_VAVTERMINAL, User-Specified Maximum Reheat Water Flow Rate [m3/s], 9.79753
 Component Sizing Information, Coil:Heating:Electric, LOBBY_1_Z5_REHEATCOIL, User-Specified Nominal Capacity [W], 2939.25995
 Component Sizing Information, AirTerminal:SingleDuct:VAV:Reheat, CONFERENCE_1_Z6_VAVTERMINAL, User-Specified Maximum Air Flow Rate [m3/s], 0.30520
 Component Sizing Information, AirTerminal:SingleDuct:VAV:Reheat, CONFERENCE_1_Z6_VAVTERMINAL, Design Size Constant Minimum Air Flow Fraction, 0.20000
 Component Sizing Information, AirTerminal:SingleDuct:VAV:Reheat, CONFERENCE_1_Z6_VAVTERMINAL, User-Specified Constant Minimum Air Flow Fraction, 0.20000
 Component Sizing Information, AirTerminal:SingleDuct:VAV:Reheat, CONFERENCE_1_Z6_VAVTERMINAL, Design Size Minimum Air Flow Rate [m3/s], 6.10408E-002
 Component Sizing Information, AirTerminal:SingleDuct:VAV:Reheat, CONFERENCE_1_Z6_VAVTERMINAL, Design Size Maximum Flow per Zone Floor Area during Reheat [m3/s-m2], 1.00000E-003
 Component Sizing Information, AirTerminal:SingleDuct:VAV:Reheat, CONFERENCE_1_Z6_VAVTERMINAL, Design Size Maximum Flow Fraction during Reheat [], 0.20000
 Component Sizing Information, AirTerminal:SingleDuct:VAV:Reheat, CONFERENCE_1_Z6_VAVTERMINAL, User-Specified Maximum Reheat Water Flow Rate [m3/s], 4.88327
 Component Sizing Information, Coil:Heating:Electric, CONFERENCE_1_Z6_REHEATCOIL, User-Specified Nominal Capacity [W], 1464.97985
 Component Sizing Information, AirTerminal:SingleDuct:VAV:Reheat, BREAK_ROOM_1_Z7_VAVTERMINAL, User-Specified Maximum Air Flow Rate [m3/s], 0.13706
 Component Sizing Information, AirTerminal:SingleDuct:VAV:Reheat, BREAK_ROOM_1_Z7_VAVTERMINAL, Design Size Constant Minimum Air Flow Fraction, 0.20000
 Component Sizing Information, AirTerminal:SingleDuct:VAV:Reheat, BREAK_ROOM_1_Z7_VAVTERMINAL, User-Specified Constant Minimum Air Flow Fraction, 0.20000
 Component Sizing Information, AirTerminal:SingleDuct:VAV:Reheat, BREAK_ROOM_1_Z7_VAVTERMINAL, Design Size Minimum Air Flow Rate [m3/s], 2.74115E-002
 Component Sizing Information, AirTerminal:SingleDuct:VAV:Reheat, BREAK_ROOM_1_Z7_VAVTERMINAL, Design Size Maximum Flow per Zone Floor Area during Reheat [m3/s-m2], 9.99991E-004
 Component Sizing Information, AirTerminal:SingleDuct:VAV:Reheat, BREAK_ROOM_1_Z7_VAVTERMINAL, Design Size Maximum Flow Fraction during Reheat [], 0.20000
 Component Sizing Information, AirTerminal:SingleDuct:VAV:Reheat, BREAK_ROOM_1_Z7_VAVTERMINAL, User-Specified Maximum Reheat Water Flow Rate [m3/s], 2.19292
 Component Sizing Information, Coil:Heating:Electric, BREAK_ROOM_1_Z7_REHEATCOIL, User-Specified Nominal Capacity [W], 657.87716
 Component Sizing Information, AirTerminal:SingleDuct:VAV:Reheat, MECHANICAL_1_Z8_VAVTERMINAL, User-Specified Maximum Air Flow Rate [m3/s], 0.23908
 Component Sizing Information, AirTerminal:SingleDuct:VAV:Reheat, MECHANICAL_1_Z8_VAVTERMINAL, Design Size Constant Minimum Air Flow Fraction, 0.20000
 Component Sizing Information, AirTerminal:SingleDuct:VAV:Reheat, MECHANICAL_1_Z8_VAVTERMINAL, User-Specified Constant Minimum Air Flow Fraction, 0.20000
 Component Sizing Information, AirTerminal:SingleDuct:VAV:Reheat, MECHANICAL_1_Z8_VAVTERMINAL, Design Size Minimum Air Flow Rate [m3/s], 4.78150E-002
 Component Sizing Information, AirTerminal:SingleDuct:VAV:Reheat, MECHANICAL_1_Z8_VAVTERMINAL, Design Size Maximum Flow per Zone Floor Area during Reheat [m3/s-m2], 1.00001E-003
 Component Sizing Information, AirTerminal:SingleDuct:VAV:Reheat, MECHANICAL_1_Z8_VAVTERMINAL, Design Size Maximum Flow Fraction during Reheat [], 0.20000
 Component Sizing Information, AirTerminal:SingleDuct:VAV:Reheat, MECHANICAL_1_Z8_VAVTERMINAL, User-Specified Maximum Reheat Water Flow Rate [m3/s], 3.82520
 Component Sizing Information, Coil:Heating:Electric, MECHANICAL_1_Z8_REHEATCOIL, User-Specified Nominal Capacity [W], 1147.56055
 Component Sizing Information, AirTerminal:SingleDuct:VAV:Reheat, OFFICE_PRIVATE_1_Z9_VAVTERMINAL, User-Specified Maximum Air Flow Rate [m3/s], 0.11839
 Component Sizing Information, AirTerminal:SingleDuct:VAV:Reheat, OFFICE_PRIVATE_1_Z9_VAVTERMINAL, Design Size Constant Minimum Air Flow Fraction, 0.20000
 Component Sizing Information, AirTerminal:SingleDuct:VAV:Reheat, OFFICE_PRIVATE_1_Z9_VAVTERMINAL, User-Specified Constant Minimum Air Flow Fraction, 0.20000
 Component Sizing Information, AirTerminal:SingleDuct:VAV:Reheat, OFFICE_PRIVATE_1_Z9_VAVTERMINAL, Design Size Minimum Air Flow Rate [m3/s], 2.36779E-002
 Component Sizing Information, AirTerminal:SingleDuct:VAV:Reheat, OFFICE_PRIVATE_1_Z9_VAVTERMINAL, Design Size Maximum Flow per Zone Floor Area during Reheat [m3/s-m2], 1.00001E-003
 Component Sizing Information, AirTerminal:SingleDuct:VAV:Reheat, OFFICE_PRIVATE_1_Z9_VAVTERMINAL, Design Size Maximum Flow Fraction during Reheat [], 0.20000
 Component Sizing Information, AirTerminal:SingleDuct:VAV:Reheat, OFFICE_PRIVATE_1_Z9_VAVTERMINAL, User-Specified Maximum Reheat Water Flow Rate [m3/s], 1.89423
 Component Sizing Information, Coil:Heating:Electric, OFFICE_PRIVATE_1_Z9_REHEATCOIL, User-Specified Nominal Capacity [W], 568.26899
 Component Sizing Information, AirTerminal:SingleDuct:VAV:Reheat, LOBBY_2_Z10_VAVTERMINAL, User-Specified Maximum Air Flow Rate [m3/s], 0.60143
 Component Sizing Information, AirTerminal:SingleDuct:VAV:Reheat, LOBBY_2_Z10_VAVTERMINAL, Design Size Constant Minimum Air Flow Fraction, 0.20000
 Component Sizing Information, AirTerminal:SingleDuct:VAV:Reheat, LOBBY_2_Z10_VAVTERMINAL, User-Specified Constant Minimum Air Flow Fraction, 0.20000
 Component Sizing Information, AirTerminal:SingleDuct:VAV:Reheat, LOBBY_2_Z10_VAVTERMINAL, Design Size Minimum Air Flow Rate [m3/s], 0.12029
 Component Sizing Information, AirTerminal:SingleDuct:VAV:Reheat, LOBBY_2_Z10_VAVTERMINAL, Design Size Maximum Flow per Zone Floor Area during Reheat [m3/s-m2], 9.99998E-004
 Component Sizing Information, AirTerminal:SingleDuct:VAV:Reheat, LOBBY_2_Z10_VAVTERMINAL, Design Size Maximum Flow Fraction during Reheat [], 0.20000
 Component Sizing Information, AirTerminal:SingleDuct:VAV:Reheat, LOBBY_2_Z10_VAVTERMINAL, User-Specified Maximum Reheat Water Flow Rate [m3/s], 9.62290
 Component Sizing Information, Coil:Heating:Electric, LOBBY_2_Z10_REHEATCOIL, User-Specified Nominal Capacity [W], 2886.86896
 Component Sizing Information, AirTerminal:SingleDuct:VAV:Reheat, CONFERENCE_2_Z11_VAVTERMINAL, User-Specified Maximum Air Flow Rate [m3/s], 0.37661
 Component Sizing Information, AirTerminal:SingleDuct:VAV:Reheat, CONFERENCE_2_Z11_VAVTERMINAL, Design Size Constant Minimum Air Flow Fraction, 0.20000
 Component Sizing Information, AirTerminal:SingleDuct:VAV:Reheat, CONFERENCE_2_Z11_VAVTERMINAL, User-Specified Constant Minimum Air Flow Fraction, 0.20000
 Component Sizing Information, AirTerminal:SingleDuct:VAV:Reheat, CONFERENCE_2_Z11_VAVTERMINAL, Design Size Minimum Air Flow Rate [m3/s], 7.53229E-002
 Component Sizing Information, AirTerminal:SingleDuct:VAV:Reheat, CONFERENCE_2_Z11_VAVTERMINAL, Design Size Maximum Flow per Zone Floor Area during Reheat [m3/s-m2], 1.00001E-003
 Component Sizing Information, AirTerminal:SingleDuct:VAV:Reheat, CONFERENCE_2_Z11_VAVTERMINAL, Design Size Maximum Flow Fraction during Reheat [], 0.20000
 Component Sizing Information, AirTerminal:SingleDuct:VAV:Reheat, CONFERENCE_2_Z11_VAVTERMINAL, User-Specified Maximum Reheat Water Flow Rate [m3/s], 6.02583
 Component Sizing Information, Coil:Heating:Electric, CONFERENCE_2_Z11_REHEATCOIL, User-Specified Nominal Capacity [W], 1807.75033
 Component Sizing Information, AirTerminal:SingleDuct:VAV:Reheat, BREAK_ROOM_2_Z12_VAVTERMINAL, User-Specified Maximum Air Flow Rate [m3/s], 0.24842
 Component Sizing Information, AirTerminal:SingleDuct:VAV:Reheat, BREAK_ROOM_2_Z12_VAVTERMINAL, Design Size Constant Minimum Air Flow Fraction, 0.20000
 Component Sizing Information, AirTerminal:SingleDuct:VAV:Reheat, BREAK_ROOM_2_Z12_VAVTERMINAL, User-Specified Constant Minimum Air Flow Fraction, 0.20000
 Component Sizing Information, AirTerminal:SingleDuct:VAV:Reheat, BREAK_ROOM_2_Z12_VAVTERMINAL, Design Size Minimum Air Flow Rate [m3/s], 4.96833E-002
 Component Sizing Information, AirTerminal:SingleDuct:VAV:Reheat, BREAK_ROOM_2_Z12_VAVTERMINAL, Design Size Maximum Flow per Zone Floor Area during Reheat [m3/s-m2], 1.00001E-003
 Component Sizing Information, AirTerminal:SingleDuct:VAV:Reheat, BREAK_ROOM_2_Z12_VAVTERMINAL, Design Size Maximum Flow Fraction during Reheat [], 0.20000
 Component Sizing Information, AirTerminal:SingleDuct:VAV:Reheat, BREAK_ROOM_2_Z12_VAVTERMINAL, User-Specified Maximum Reheat Water Flow Rate [m3/s], 3.97466
 Component Sizing Information, Coil:Heating:Electric, BREAK_ROOM_2_Z12_REHEATCOIL, User-Specified Nominal Capacity [W], 1192.39835
 Component Sizing Information, AirTerminal:SingleDuct:VAV:Reheat, MECHANICAL_2_Z13_VAVTERMINAL, User-Specified Maximum Air Flow Rate [m3/s], 0.33022
 Component Sizing Information, AirTerminal:SingleDuct:VAV:Reheat, MECHANICAL_2_Z13_VAVTERMINAL, Design Size Constant Minimum Air Flow Fraction, 0.20000
 Component Sizing Information, AirTerminal:SingleDuct:VAV:Reheat, MECHANICAL_2_Z13_VAVTERMINAL, User-Specified Constant Minimum Air Flow Fraction, 0.20000
 Component Sizing Information, AirTerminal:SingleDuct:VAV:Reheat, MECHANICAL_2_Z13_VAVTERMINAL, Design Size Minimum Air Flow Rate [m3/s], 6.60448E-002
 Component Sizing Information, AirTerminal:SingleDuct:VAV:Reheat, MECHANICAL_2_Z13_VAVTERMINAL, Design Size Maximum Flow per Zone Floor Area during Reheat [m3/s-m2], 9.99996E-004
 Component Sizing Information, AirTerminal:SingleDuct:VAV:Reheat, MECHANICAL_2_Z13_VAVTERMINAL, Design Size Maximum Flow Fraction during Reheat [], 0.20000
 Component Sizing Information, AirTerminal:SingleDuct:VAV:Reheat, MECHANICAL_2_Z13_VAVTERMINAL, User-Specified Maximum Reheat Water Flow Rate [m3/s], 5.28358
 Component Sizing Information, Coil:Heating:Electric, MECHANICAL_2_Z13_REHEATCOIL, User-Specified Nominal Capacity [W], 1585.07470
 Component Sizing Information, AirTerminal:SingleDuct:VAV:Reheat, OFFICE_OPEN_2_Z14_VAVTERMINAL, User-Specified Maximum Air Flow Rate [m3/s], 1.27393
 Component Sizing Information, AirTerminal:SingleDuct:VAV:Reheat, OFFICE_OPEN_2_Z14_VAVTERMINAL, Design Size Constant Minimum Air Flow Fraction, 0.20000
 Component Sizing Information, AirTerminal:SingleDuct:VAV:Reheat, OFFICE_OPEN_2_Z14_VAVTERMINAL, User-Specified Constant Minimum Air Flow Fraction, 0.20000
 Component Sizing Information, AirTerminal:SingleDuct:VAV:Reheat, OFFICE_OPEN_2_Z14_VAVTERMINAL, Design Size Minimum Air Flow Rate [m3/s], 0.25479
 Component Sizing Information, AirTerminal:SingleDuct:VAV:Reheat, OFFICE_OPEN_2_Z14_VAVTERMINAL, Design Size Maximum Flow per Zone Floor Area during Reheat [m3/s-m2], 1.00001E-003
 Component Sizing Information, AirTerminal:SingleDuct:VAV:Reheat, OFFICE_OPEN_2_Z14_VAVTERMINAL, Design Size Maximum Flow Fraction during Reheat [], 0.20000
 Component Sizing Information, AirTerminal:SingleDuct:VAV:Reheat, OFFICE_OPEN_2_Z14_VAVTERMINAL, User-Specified Maximum Reheat Water Flow Rate [m3/s], 20.38295
 Component Sizing Information, Coil:Heating:Electric, OFFICE_OPEN_2_Z14_REHEATCOIL, User-Specified Nominal Capacity [W], 6114.88533
 Component Sizing Information, AirTerminal:SingleDuct:VAV:Reheat, OFFICE_PRIVATE_2_Z15_VAVTERMINAL, User-Specified Maximum Air Flow Rate [m3/s], 0.11804
 Component Sizing Information, AirTerminal:SingleDuct:VAV:Reheat, OFFICE_PRIVATE_2_Z15_VAVTERMINAL, Design Size Constant Minimum Air Flow Fraction, 0.20000
 Component Sizing Information, AirTerminal:SingleDuct:VAV:Reheat, OFFICE_PRIVATE_2_Z15_VAVTERMINAL, User-Specified Constant Minimum Air Flow Fraction, 0.20000
 Component Sizing Information, AirTerminal:SingleDuct:VAV:Reheat, OFFICE_PRIVATE_2_Z15_VAVTERMINAL, Design Size Minimum Air Flow Rate [m3/s], 2.36075E-002
 Component Sizing Information, AirTerminal:SingleDuct:VAV:Reheat, OFFICE_PRIVATE_2_Z15_VAVTERMINAL, Design Size Maximum Flow per Zone Floor Area during Reheat [m3/s-m2], 9.99997E-004
 Component Sizing Information, AirTerminal:SingleDuct:VAV:Reheat, OFFICE_PRIVATE_2_Z15_VAVTERMINAL, Design Size Maximum Flow Fraction during Reheat [], 0.20000
 Component Sizing Information, AirTerminal:SingleDuct:VAV:Reheat, OFFICE_PRIVATE_2_Z15_VAVTERMINAL, User-Specified Maximum Reheat Water Flow Rate [m3/s], 1.88860
 Component Sizing Information, Coil:Heating:Electric, OFFICE_PRIVATE_2_Z15_REHEATCOIL, User-Specified Nominal Capacity [W], 566.57909
 Component Sizing Information, AirTerminal:SingleDuct:VAV:Reheat, STORAGE_2_Z16_VAVTERMINAL, User-Specified Maximum Air Flow Rate [m3/s], 0.20209
 Component Sizing Information, AirTerminal:SingleDuct:VAV:Reheat, STORAGE_2_Z16_VAVTERMINAL, Design Size Constant Minimum Air Flow Fraction, 0.20000
 Component Sizing Information, AirTerminal:SingleDuct:VAV:Reheat, STORAGE_2_Z16_VAVTERMINAL, User-Specified Constant Minimum Air Flow Fraction, 0.20000
 Component Sizing Information, AirTerminal:SingleDuct:VAV:Reheat, STORAGE_2_Z16_VAVTERMINAL, Design Size Minimum Air Flow Rate [m3/s], 4.04177E-002
 Component Sizing Information, AirTerminal:SingleDuct:VAV:Reheat, STORAGE_2_Z16_VAVTERMINAL, Design Size Maximum Flow per Zone Floor Area during Reheat [m3/s-m2], 1.00002E-003
 Component Sizing Information, AirTerminal:SingleDuct:VAV:Reheat, STORAGE_2_Z16_VAVTERMINAL, Design Size Maximum Flow Fraction during Reheat [], 0.20000
 Component Sizing Information, AirTerminal:SingleDuct:VAV:Reheat, STORAGE_2_Z16_VAVTERMINAL, User-Specified Maximum Reheat Water Flow Rate [m3/s], 3.23341
 Component Sizing Information, Coil:Heating:Electric, STORAGE_2_Z16_REHEATCOIL, User-Specified Nominal Capacity [W], 970.02380
 Component Sizing Information, Coil:Cooling:DX:SingleSpeed, LOBBY_0_Z1_COOLINGCOILDX, User-Specified Rated Air Flow Rate [m3/s], 0.41232
 Component Sizing Information, Coil:Cooling:DX:SingleSpeed, LOBBY_0_Z1_COOLINGCOILDX, User-Specified Gross Rated Total Cooling Capacity [W], 8246.35994
 Component Sizing Information, Coil:Cooling:DX:SingleSpeed, LOBBY_0_Z1_COOLINGCOILDX, User-Specified Gross Rated Sensible Heat Ratio, 0.75000
! <DX Cooling Coil Standard Rating Information>, Component Type, Component Name, Standard Rating (Net) Cooling Capacity {W}, Standard Rating Net COP {W/W}, EER {Btu/W-h}, SEER User {Btu/W-h}, SEER Standard {Btu/W-h}, IEER {Btu/W-h}
 DX Cooling Coil Standard Rating Information, Coil:Cooling:DX:SingleSpeed, LOBBY_0_Z1_COOLINGCOILDX, 7926.2, 32.96, 112.48, 62.04, 58.68, 41.3
! <DX Cooling Coil AHRI 2023 Standard Rating Information>, Component Type, Component Name, Standard Rating (Net) Cooling Capacity {W}, Standard Rating Net COP2 {W/W}, EER2 {Btu/W-h}, SEER2 User {Btu/W-h}, SEER2 Standard {Btu/W-h}, IEER 2022 {Btu/W-h}
 DX Cooling Coil AHRI 2023 Standard Rating Information, Coil:Cooling:DX:SingleSpeed, LOBBY_0_Z1_COOLINGCOILDX, 7926.2, 32.96, 112.48, 62.04, 60.36, 41.3
 Component Sizing Information, Coil:Heating:Electric, LOBBY_0_Z1_HEATINGCOIL, User-Specified Nominal Capacity [W], 6597.08795
 Component Sizing Information, Fan:VariableVolume, LOBBY_0_Z1_SUPPLYFAN, User-Specified Maximum Flow Rate [m3/s], 0.41232
 Component Sizing Information, Fan:VariableVolume, LOBBY_0_Z1_SUPPLYFAN, Design Electric Power Consumption [W], 353.41543
 Component Sizing Information, Coil:Cooling:DX:SingleSpeed, CONFERENCE_0_Z2_COOLINGCOILDX, User-Specified Rated Air Flow Rate [m3/s], 0.17269
 Component Sizing Information, Coil:Cooling:DX:SingleSpeed, CONFERENCE_0_Z2_COOLINGCOILDX, User-Specified Gross Rated Total Cooling Capacity [W], 3453.84187
 Component Sizing Information, Coil:Cooling:DX:SingleSpeed, CONFERENCE_0_Z2_COOLINGCOILDX, User-Specified Gross Rated Sensible Heat Ratio, 0.75000
 DX Cooling Coil Standard Rating Information, Coil:Cooling:DX:SingleSpeed, CONFERENCE_0_Z2_COOLINGCOILDX, 3319.7, 32.96, 112.48, 62.04, 58.68, 41.3
 DX Cooling Coil AHRI 2023 Standard Rating Information, Coil:Cooling:DX:SingleSpeed, CONFERENCE_0_Z2_COOLINGCOILDX, 3319.7, 32.96, 112.48, 62.04, 60.36, 41.3
 Component Sizing Information, Coil:Heating:Electric, CONFERENCE_0_Z2_HEATINGCOIL, User-Specified Nominal Capacity [W], 2763.07349
 Component Sizing Information, Fan:VariableVolume, CONFERENCE_0_Z2_SUPPLYFAN, User-Specified Maximum Flow Rate [m3/s], 0.17269
 Component Sizing Information, Fan:VariableVolume, CONFERENCE_0_Z2_SUPPLYFAN, Design Electric Power Consumption [W], 148.02179
 Component Sizing Information, Coil:Cooling:DX:SingleSpeed, BREAK_ROOM_0_Z3_COOLINGCOILDX, User-Specified Rated Air Flow Rate [m3/s], 0.35823
 Component Sizing Information, Coil:Cooling:DX:SingleSpeed, BREAK_ROOM_0_Z3_COOLINGCOILDX, User-Specified Gross Rated Total Cooling Capacity [W], 7164.61865
 Component Sizing Information, Coil:Cooling:DX:SingleSpeed, BREAK_ROOM_0_Z3_COOLINGCOILDX, User-Specified Gross Rated Sensible Heat Ratio, 0.75000
 DX Cooling Coil Standard Rating Information, Coil:Cooling:DX:SingleSpeed, BREAK_ROOM_0_Z3_COOLINGCOILDX, 6886.4, 32.96, 112.48, 62.04, 58.68, 41.3
 DX Cooling Coil AHRI 2023 Standard Rating Information, Coil:Cooling:DX:SingleSpeed, BREAK_ROOM_0_Z3_COOLINGCOILDX, 6886.4, 32.96, 112.48, 62.04, 60.36, 41.3
 Component Sizing Information, Coil:Heating:Electric, BREAK_ROOM_0_Z3_HEATINGCOIL, User-Specified Nominal Capacity [W], 5731.69492
 Component Sizing Information, Fan:VariableVolume, BREAK_ROOM_0_Z3_SUPPLYFAN, User-Specified Maximum Flow Rate [m3/s], 0.35823
 Component Sizing Information, Fan:VariableVolume, BREAK_ROOM_0_Z3_SUPPLYFAN, Design Electric Power Consumption [W], 307.05509
 Component Sizing Information, Coil:Cooling:DX:SingleSpeed, STORAGE_0_Z4_COOLINGCOILDX, User-Specified Rated Air Flow Rate [m3/s], 0.17928
 Component Sizing Information, Coil:Cooling:DX:SingleSpeed, STORAGE_0_Z4_COOLINGCOILDX, User-Specified Gross Rated Total Cooling Capacity [W], 3585.52091
 Component Sizing Information, Coil:Cooling:DX:SingleSpeed, STORAGE_0_Z4_COOLINGCOILDX, User-Specified Gross Rated Sensible Heat Ratio, 0.75000
 DX Cooling Coil Standard Rating Information, Coil:Cooling:DX:SingleSpeed, STORAGE_0_Z4_COOLINGCOILDX, 3446.3, 32.96, 112.48, 62.04, 58.68, 41.3
 DX Cooling Coil AHRI 2023 Standard Rating Information, Coil:Cooling:DX:SingleSpeed, STORAGE_0_Z4_COOLINGCOILDX, 3446.3, 32.96, 112.48, 62.04, 60.36, 41.3
 Component Sizing Information, Coil:Heating:Electric, STORAGE_0_Z4_HEATINGCOIL, User-Specified Nominal Capacity [W], 2868.41673
 Component Sizing Information, Fan:VariableVolume, STORAGE_0_Z4_SUPPLYFAN, User-Specified Maximum Flow Rate [m3/s], 0.17928
 Component Sizing Information, Fan:VariableVolume, STORAGE_0_Z4_SUPPLYFAN, Design Electric Power Consumption [W], 153.66518
 Component Sizing Information, Coil:Cooling:DX:SingleSpeed, LOBBY_1_Z5_COOLINGCOILDX, User-Specified Rated Air Flow Rate [m3/s], 0.61235
 Component Sizing Information, Coil:Cooling:DX:SingleSpeed, LOBBY_1_Z5_COOLINGCOILDX, User-Specified Gross Rated Total Cooling Capacity [W], 12246.91645
 Component Sizing Information, Coil:Cooling:DX:SingleSpeed, LOBBY_1_Z5_COOLINGCOILDX, User-Specified Gross Rated Sensible Heat Ratio, 0.75000
 DX Cooling Coil Standard Rating Information, Coil:Cooling:DX:SingleSpeed, LOBBY_1_Z5_COOLINGCOILDX, 11771.4, 32.96, 112.48, 62.04, 58.68, 41.3
 DX Cooling Coil AHRI 2023 Standard Rating Information, Coil:Cooling:DX:SingleSpeed, LOBBY_1_Z5_COOLINGCOILDX, 11771.4, 32.96, 112.48, 62.04, 60.36, 41.3
 Component Sizing Information, Coil:Heating:Electric, LOBBY_1_Z5_HEATINGCOIL, User-Specified Nominal Capacity [W], 9797.53316
 Component Sizing Information, Fan:VariableVolume, LOBBY_1_Z5_SUPPLYFAN, User-Specified Maximum Flow Rate [m3/s], 0.61235
 Component Sizing Information, Fan:VariableVolume, LOBBY_1_Z5_SUPPLYFAN, Design Electric Power Consumption [W], 524.86785
 Component Sizing Information, Coil:Cooling:DX:SingleSpeed, CONFERENCE_1_Z6_COOLINGCOILDX, User-Specified Rated Air Flow Rate [m3/s], 0.30520
 Component Sizing Information, Coil:Cooling:DX:SingleSpeed, CONFERENCE_1_Z6_COOLINGCOILDX, User-Specified Gross Rated Total Cooling Capacity [W], 6104.08272
 Component Sizing Information, Coil:Cooling:DX:SingleSpeed, CONFERENCE_1_Z6_COOLINGCOILDX, User-Specified Gross Rated Sensible Heat Ratio, 0.75000
 DX Cooling Coil Standard Rating Information, Coil:Cooling:DX:SingleSpeed, CONFERENCE_1_Z6_COOLINGCOILDX, 5867.1, 32.96, 112.48, 62.04, 58.68, 41.3
 DX Cooling Coil AHRI 2023 Standard Rating Information, Coil:Cooling:DX:SingleSpeed, CONFERENCE_1_Z6_COOLINGCOILDX, 5867.1, 32.96, 112.48, 62.04, 60.36, 41.3
 Component Sizing Information, Coil:Heating:Electric, CONFERENCE_1_Z6_HEATINGCOIL, User-Specified Nominal Capacity [W], 4883.26617
 Component Sizing Information, Fan:VariableVolume, CONFERENCE_1_Z6_SUPPLYFAN, User-Specified Maximum Flow Rate [m3/s], 0.30520
 Component Sizing Information, Fan:VariableVolume, CONFERENCE_1_Z6_SUPPLYFAN, Design Electric Power Consumption [W], 261.60354
 Component Sizing Information, Coil:Cooling:DX:SingleSpeed, BREAK_ROOM_1_Z7_COOLINGCOILDX, User-Specified Rated Air Flow Rate [m3/s], 0.13706
 Component Sizing Information, Coil:Cooling:DX:SingleSpeed, BREAK_ROOM_1_Z7_COOLINGCOILDX, User-Specified Gross Rated Total Cooling Capacity [W], 2741.15485
 Component Sizing Information, Coil:Cooling:DX:SingleSpeed, BREAK_ROOM_1_Z7_COOLINGCOILDX, User-Specified Gross Rated Sensible Heat Ratio, 0.75000
 DX Cooling Coil Standard Rating Information, Coil:Cooling:DX:SingleSpeed, BREAK_ROOM_1_Z7_COOLINGCOILDX, 2634.7, 32.96, 112.48, 62.04, 58.68, 41.3
 DX Cooling Coil AHRI 2023 Standard Rating Information, Coil:Cooling:DX:SingleSpeed, BREAK_ROOM_1_Z7_COOLINGCOILDX, 2634.7, 32.96, 112.48, 62.04, 60.36, 41.3
 Component Sizing Information, Coil:Heating:Electric, BREAK_ROOM_1_Z7_HEATINGCOIL, User-Specified Nominal Capacity [W], 2192.92388
 Component Sizing Information, Fan:VariableVolume, BREAK_ROOM_1_Z7_SUPPLYFAN, User-Specified Maximum Flow Rate [m3/s], 0.13706
 Component Sizing Information, Fan:VariableVolume, BREAK_ROOM_1_Z7_SUPPLYFAN, Design Electric Power Consumption [W], 117.47806
 Component Sizing Information, Coil:Cooling:DX:SingleSpeed, MECHANICAL_1_Z8_COOLINGCOILDX, User-Specified Rated Air Flow Rate [m3/s], 0.23908
 Component Sizing Information, Coil:Cooling:DX:SingleSpeed, MECHANICAL_1_Z8_COOLINGCOILDX, User-Specified Gross Rated Total Cooling Capacity [W], 4781.50229
 Component Sizing Information, Coil:Cooling:DX:SingleSpeed, MECHANICAL_1_Z8_COOLINGCOILDX, User-Specified Gross Rated Sensible Heat Ratio, 0.75000
 DX Cooling Coil Standard Rating Information, Coil:Cooling:DX:SingleSpeed, MECHANICAL_1_Z8_COOLINGCOILDX, 4595.9, 32.96, 112.48, 62.04, 58.68, 41.3
 DX Cooling Coil AHRI 2023 Standard Rating Information, Coil:Cooling:DX:SingleSpeed, MECHANICAL_1_Z8_COOLINGCOILDX, 4595.9, 32.96, 112.48, 62.04, 60.36, 41.3
 Component Sizing Information, Coil:Heating:Electric, MECHANICAL_1_Z8_HEATINGCOIL, User-Specified Nominal Capacity [W], 3825.20184
 Component Sizing Information, Fan:VariableVolume, MECHANICAL_1_Z8_SUPPLYFAN, User-Specified Maximum Flow Rate [m3/s], 0.23908
 Component Sizing Information, Fan:VariableVolume, MECHANICAL_1_Z8_SUPPLYFAN, Design Electric Power Consumption [W], 204.92153
 Component Sizing Information, Coil:Cooling:DX:SingleSpeed, OFFICE_PRIVATE_1_Z9_COOLINGCOILDX, User-Specified Rated Air Flow Rate [m3/s], 0.11839
 Component Sizing Information, Coil:Cooling:DX:SingleSpeed, OFFICE_PRIVATE_1_Z9_COOLINGCOILDX, User-Specified Gross Rated Total Cooling Capacity [W], 2367.78747
 Component Sizing Information, Coil:Cooling:DX:SingleSpeed, OFFICE_PRIVATE_1_Z9_COOLINGCOILDX, User-Specified Gross Rated Sensible Heat Ratio, 0.75000
 DX Cooling Coil Standard Rating Information, Coil:Cooling:DX:SingleSpeed, OFFICE_PRIVATE_1_Z9_COOLINGCOILDX, 2275.9, 32.96, 112.48, 62.04, 58.68, 41.3
 DX Cooling Coil AHRI 2023 Standard Rating Information, Coil:Cooling:DX:SingleSpeed, OFFICE_PRIVATE_1_Z9_COOLINGCOILDX, 2275.9, 32.96, 112.48, 62.04, 60.36, 41.3
 Component Sizing Information, Coil:Heating:Electric, OFFICE_PRIVATE_1_Z9_HEATINGCOIL, User-Specified Nominal Capacity [W], 1894.22998
 Component Sizing Information, Fan:VariableVolume, OFFICE_PRIVATE_1_Z9_SUPPLYFAN, User-Specified Maximum Flow Rate [m3/s], 0.11839
 Component Sizing Information, Fan:VariableVolume, OFFICE_PRIVATE_1_Z9_SUPPLYFAN, Design Electric Power Consumption [W], 101.47661
 Component Sizing Information, Coil:Cooling:DX:SingleSpeed, LOBBY_2_Z10_COOLINGCOILDX, User-Specified Rated Air Flow Rate [m3/s], 0.60143
 Component Sizing Information, Coil:Cooling:DX:SingleSpeed, LOBBY_2_Z10_COOLINGCOILDX, User-Specified Gross Rated Total Cooling Capacity [W], 12028.62069
 Component Sizing Information, Coil:Cooling:DX:SingleSpeed, LOBBY_2_Z10_COOLINGCOILDX, User-Specified Gross Rated Sensible Heat Ratio, 0.75000
 DX Cooling Coil Standard Rating Information, Coil:Cooling:DX:SingleSpeed, LOBBY_2_Z10_COOLINGCOILDX, 11561.6, 32.96, 112.48, 62.04, 58.68, 41.3
 DX Cooling Coil AHRI 2023 Standard Rating Information, Coil:Cooling:DX:SingleSpeed, LOBBY_2_Z10_COOLINGCOILDX, 11561.6, 32.96, 112.48, 62.04, 60.36, 41.3
 Component Sizing Information, Coil:Heating:Electric, LOBBY_2_Z10_HEATINGCOIL, User-Specified Nominal Capacity [W], 9622.89655
 Component Sizing Information, Fan:VariableVolume, LOBBY_2_Z10_SUPPLYFAN, User-Specified Maximum Flow Rate [m3/s], 0.60143
 Component Sizing Information, Fan:VariableVolume, LOBBY_2_Z10_SUPPLYFAN, Design Electric Power Consumption [W], 515.51232
 Component Sizing Information, Coil:Cooling:DX:SingleSpeed, CONFERENCE_2_Z11_COOLINGCOILDX, User-Specified Rated Air Flow Rate [m3/s], 0.37661
 Component Sizing Information, Coil:Cooling:DX:SingleSpeed, CONFERENCE_2_Z11_COOLINGCOILDX, User-Specified Gross Rated Total Cooling Capacity [W], 7532.29304
 Component Sizing Information, Coil:Cooling:DX:SingleSpeed, CONFERENCE_2_Z11_COOLINGCOILDX, User-Specified Gross Rated Sensible Heat Ratio, 0.75000
 DX Cooling Coil Standard Rating Information, Coil:Cooling:DX:SingleSpeed, CONFERENCE_2_Z11_COOLINGCOILDX, 7239.8, 32.96, 112.48, 62.04, 58.68, 41.3
 DX Cooling Coil AHRI 2023 Standard Rating Information, Coil:Cooling:DX:SingleSpeed, CONFERENCE_2_Z11_COOLINGCOILDX, 7239.8, 32.96, 112.48, 62.04, 60.36, 41.3
 Component Sizing Information, Coil:Heating:Electric, CONFERENCE_2_Z11_HEATINGCOIL, User-Specified Nominal Capacity [W], 6025.83443
 Component Sizing Information, Fan:VariableVolume, CONFERENCE_2_Z11_SUPPLYFAN, User-Specified Maximum Flow Rate [m3/s], 0.37661
 Component Sizing Information, Fan:VariableVolume, CONFERENCE_2_Z11_SUPPLYFAN, Design Electric Power Consumption [W], 322.81256
 Component Sizing Information, Coil:Cooling:DX:SingleSpeed, BREAK_ROOM_2_Z12_COOLINGCOILDX, User-Specified Rated Air Flow Rate [m3/s], 0.24842
 Component Sizing Information, Coil:Cooling:DX:SingleSpeed, BREAK_ROOM_2_Z12_COOLINGCOILDX, User-Specified Gross Rated Total Cooling Capacity [W], 4968.32644
 Component Sizing Information, Coil:Cooling:DX:SingleSpeed, BREAK_ROOM_2_Z12_COOLINGCOILDX, User-Specified Gross Rated Sensible Heat Ratio, 0.75000
 DX Cooling Coil Standard Rating Information, Coil:Cooling:DX:SingleSpeed, BREAK_ROOM_2_Z12_COOLINGCOILDX, 4775.4, 32.96, 112.48, 62.04, 58.68, 41.3
 DX Cooling Coil AHRI 2023 Standard Rating Information, Coil:Cooling:DX:SingleSpeed, BREAK_ROOM_2_Z12_COOLINGCOILDX, 4775.4, 32.96, 112.48, 62.04, 60.36, 41.3
 Component Sizing Information, Coil:Heating:Electric, BREAK_ROOM_2_Z12_HEATINGCOIL, User-Specified Nominal Capacity [W], 3974.66115
 Component Sizing Information, Fan:VariableVolume, BREAK_ROOM_2_Z12_SUPPLYFAN, User-Specified Maximum Flow Rate [m3/s], 0.24842
 Component Sizing Information, Fan:VariableVolume, BREAK_ROOM_2_Z12_SUPPLYFAN, Design Electric Power Consumption [W], 212.92828
 Component Sizing Information, Coil:Cooling:DX:SingleSpeed, MECHANICAL_2_Z13_COOLINGCOILDX, User-Specified Rated Air Flow Rate [m3/s], 0.33022
 Component Sizing Information, Coil:Cooling:DX:SingleSpeed, MECHANICAL_2_Z13_COOLINGCOILDX, User-Specified Gross Rated Total Cooling Capacity [W], 6604.47791
 Component Sizing Information, Coil:Cooling:DX:SingleSpeed, MECHANICAL_2_Z13_COOLINGCOILDX, User-Specified Gross Rated Sensible Heat Ratio, 0.75000
 DX Cooling Coil Standard Rating Information, Coil:Cooling:DX:SingleSpeed, MECHANICAL_2_Z13_COOLINGCOILDX, 6348.1, 32.96, 112.48, 62.04, 58.68, 41.3
 DX Cooling Coil AHRI 2023 Standard Rating Information, Coil:Cooling:DX:SingleSpeed, MECHANICAL_2_Z13_COOLINGCOILDX, 6348.1, 32.96, 112.48, 62.04, 60.36, 41.3
 Component Sizing Information, Coil:Heating:Electric, MECHANICAL_2_Z13_HEATINGCOIL, User-Specified Nominal Capacity [W], 5283.58233
 Component Sizing Information, Fan:VariableVolume, MECHANICAL_2_Z13_SUPPLYFAN, User-Specified Maximum Flow Rate [m3/s], 0.33022
 Component Sizing Information, Fan:VariableVolume, MECHANICAL_2_Z13_SUPPLYFAN, Design Electric Power Consumption [W], 283.04905
 Component Sizing Information, Coil:Cooling:DX:SingleSpeed, OFFICE_OPEN_2_Z14_COOLINGCOILDX, User-Specified Rated Air Flow Rate [m3/s], 1.27393
 Component Sizing Information, Coil:Cooling:DX:SingleSpeed, OFFICE_OPEN_2_Z14_COOLINGCOILDX, User-Specified Gross Rated Total Cooling Capacity [W], 25478.68887
 Component Sizing Information, Coil:Cooling:DX:SingleSpeed, OFFICE_OPEN_2_Z14_COOLINGCOILDX, User-Specified Gross Rated Sensible Heat Ratio, 0.75000
 DX Cooling Coil Standard Rating Information, Coil:Cooling:DX:SingleSpeed, OFFICE_OPEN_2_Z14_COOLINGCOILDX, 24489.5, 32.96, 112.48, 62.04, 58.68, 41.3
 DX Cooling Coil AHRI 2023 Standard Rating Information, Coil:Cooling:DX:SingleSpeed, OFFICE_OPEN_2_Z14_COOLINGCOILDX, 24489.5, 32.96, 112.48, 62.04, 60.36, 41.3
 Component Sizing Information, Coil:Heating:Electric, OFFICE_OPEN_2_Z14_HEATINGCOIL, User-Specified Nominal Capacity [W], 20382.95109
 Component Sizing Information, Fan:VariableVolume, OFFICE_OPEN_2_Z14_SUPPLYFAN, User-Specified Maximum Flow Rate [m3/s], 1.27393
 Component Sizing Information, Fan:VariableVolume, OFFICE_OPEN_2_Z14_SUPPLYFAN, Design Electric Power Consumption [W], 1091.94381
 Component Sizing Information, Coil:Cooling:DX:SingleSpeed, OFFICE_PRIVATE_2_Z15_COOLINGCOILDX, User-Specified Rated Air Flow Rate [m3/s], 0.11804
 Component Sizing Information, Coil:Cooling:DX:SingleSpeed, OFFICE_PRIVATE_2_Z15_COOLINGCOILDX, User-Specified Gross Rated Total Cooling Capacity [W], 2360.74623
 Component Sizing Information, Coil:Cooling:DX:SingleSpeed, OFFICE_PRIVATE_2_Z15_COOLINGCOILDX, User-Specified Gross Rated Sensible Heat Ratio, 0.75000
 DX Cooling Coil Standard Rating Information, Coil:Cooling:DX:SingleSpeed, OFFICE_PRIVATE_2_Z15_COOLINGCOILDX, 2269.1, 32.96, 112.48, 62.04, 58.68, 41.3
 DX Cooling Coil AHRI 2023 Standard Rating Information, Coil:Cooling:DX:SingleSpeed, OFFICE_PRIVATE_2_Z15_COOLINGCOILDX, 2269.1, 32.96, 112.48, 62.04, 60.36, 41.3
 Component Sizing Information, Coil:Heating:Electric, OFFICE_PRIVATE_2_Z15_HEATINGCOIL, User-Specified Nominal Capacity [W], 1888.59698
 Component Sizing Information, Fan:VariableVolume, OFFICE_PRIVATE_2_Z15_SUPPLYFAN, User-Specified Maximum Flow Rate [m3/s], 0.11804
 Component Sizing Information, Fan:VariableVolume, OFFICE_PRIVATE_2_Z15_SUPPLYFAN, Design Electric Power Consumption [W], 101.17484
 Component Sizing Information, Coil:Cooling:DX:SingleSpeed, STORAGE_2_Z16_COOLINGCOILDX, User-Specified Rated Air Flow Rate [m3/s], 0.20209
 Component Sizing Information, Coil:Cooling:DX:SingleSpeed, STORAGE_2_Z16_COOLINGCOILDX, User-Specified Gross Rated Total Cooling Capacity [W], 4041.76585
 Component Sizing Information, Coil:Cooling:DX:SingleSpeed, STORAGE_2_Z16_COOLINGCOILDX, User-Specified Gross Rated Sensible Heat Ratio, 0.75000
 DX Cooling Coil Standard Rating Information, Coil:Cooling:DX:SingleSpeed, STORAGE_2_Z16_COOLINGCOILDX, 3884.8, 32.96, 112.48, 62.04, 58.68, 41.3
 DX Cooling Coil AHRI 2023 Standard Rating Information, Coil:Cooling:DX:SingleSpeed, STORAGE_2_Z16_COOLINGCOILDX, 3884.8, 32.96, 112.48, 62.04, 60.36, 41.3
 Component Sizing Information, Coil:Heating:Electric, STORAGE_2_Z16_HEATINGCOIL, User-Specified Nominal Capacity [W], 3233.41268
 Component Sizing Information, Fan:VariableVolume, STORAGE_2_Z16_SUPPLYFAN, User-Specified Maximum Flow Rate [m3/s], 0.20209
 Component Sizing Information, Fan:VariableVolume, STORAGE_2_Z16_SUPPLYFAN, Design Electric Power Consumption [W], 173.21854
! <Environment>,Environment Name,Environment Type, Start Date, End Date, Start DayOfWeek, Duration {#days}, Source:Start DayOfWeek,  Use Daylight Saving, Use Holidays, Apply Weekend Holiday Rule,  Use Rain Values, Use Snow Values, Sky Temperature Model
! <Environment:Special Days>, Special Day Name, Special Day Type, Source, Start Date, Duration {#days}
! <Environment:Daylight Saving>, Daylight Saving Indicator, Source, Start Date, End Date
! <Environment:WarmupDays>, NumberofWarmupDays
Environment,YEAR ROUND RUN PERIOD,WeatherFileRunPeriod,01/01/2017,12/31/2017,Sunday,365,Use RunPeriod Specified Day,Yes,Yes,Yes,Yes,Yes,Clark and Allen
Environment:Daylight Saving,No,
! <Sky Daylight Factors>, Sky Type, MonthAndDay, Daylighting Control Name, Enclosure Name, Window Name, Reference Point, Daylight Factor
 Sky Daylight Factors,Clear Sky,01/01,LOBBY_0_DAYLIGHT,LOBBY_0,LOBBY_0_WINDOW_1,LOBBY_0_REFERENCEPOINT1,5.4471E-003
 Sky Daylight Factors,Clear Turbid Sky,01/01,LOBBY_0_DAYLIGHT,LOBBY_0,LOBBY_0_WINDOW_1,LOBBY_0_REFERENCEPOINT1,6.1018E-003
 Sky Daylight Factors,Intermediate Sky,01/01,LOBBY_0_DAYLIGHT,LOBBY_0,LOBBY_0_WINDOW_1,LOBBY_0_REFERENCEPOINT1,3.8922E-003
 Sky Daylight Factors,Overcast Sky,01/01,LOBBY_0_DAYLIGHT,LOBBY_0,LOBBY_0_WINDOW_1,LOBBY_0_REFERENCEPOINT1,2.0604E-003
 Sky Daylight Factors,Clear Sky,01/01,LOBBY_0_DAYLIGHT,LOBBY_0,LOBBY_0_WINDOW_2,LOBBY_0_REFERENCEPOINT1,5.7952E-003
 Sky Daylight Factors,Clear Turbid Sky,01/01,LOBBY_0_DAYLIGHT,LOBBY_0,LOBBY_0_WINDOW_2,LOBBY_0_REFERENCEPOINT1,5.4108E-003
 Sky Daylight Factors,Intermediate Sky,01/01,LOBBY_0_DAYLIGHT,LOBBY_0,LOBBY_0_WINDOW_2,LOBBY_0_REFERENCEPOINT1,5.6279E-003
 Sky Daylight Factors,Overcast Sky,01/01,LOBBY_0_DAYLIGHT,LOBBY_0,LOBBY_0_WINDOW_2,LOBBY_0_REFERENCEPOINT1,4.9147E-003
 Sky Daylight Factors,Clear Sky,01/01,LOBBY_0_DAYLIGHT,LOBBY_0,LOBBY_0_WINDOW_3,LOBBY_0_REFERENCEPOINT1,4.1254E-003
 Sky Daylight Factors,Clear Turbid Sky,01/01,LOBBY_0_DAYLIGHT,LOBBY_0,LOBBY_0_WINDOW_3,LOBBY_0_REFERENCEPOINT1,3.3427E-003
 Sky Daylight Factors,Intermediate Sky,01/01,LOBBY_0_DAYLIGHT,LOBBY_0,LOBBY_0_WINDOW_3,LOBBY_0_REFERENCEPOINT1,2.9904E-003
 Sky Daylight Factors,Overcast Sky,01/01,LOBBY_0_DAYLIGHT,LOBBY_0,LOBBY_0_WINDOW_3,LOBBY_0_REFERENCEPOINT1,4.1775E-003
 Sky Daylight Factors,Clear Sky,01/01,LOBBY_0_DAYLIGHT,LOBBY_0,LOBBY_0_WINDOW_4,LOBBY_0_REFERENCEPOINT1,5.2006E-003
 Sky Daylight Factors,Clear Turbid Sky,01/01,LOBBY_0_DAYLIGHT,LOBBY_0,LOBBY_0_WINDOW_4,LOBBY_0_REFERENCEPOINT1,4.9896E-003
 Sky Daylight Factors,Intermediate Sky,01/01,LOBBY_0_DAYLIGHT,LOBBY_0,LOBBY_0_WINDOW_4,LOBBY_0_REFERENCEPOINT1,5.0730E-003
 Sky Daylight Factors,Overcast Sky,01/01,LOBBY_0_DAYLIGHT,LOBBY_0,LOBBY_0_WINDOW_4,LOBBY_0_REFERENCEPOINT1,4.4771E-003
 Sky Daylight Factors,Clear Sky,01/01,CONFERENCE_0_DAYLIGHT,CONFERENCE_0,CONFERENCE_0_WINDOW_1,CONFERENCE_0_REFERENCEPOINT1,8.2183E-003
 Sky Daylight Factors,Clear Turbid Sky,01/01,CONFERENCE_0_DAYLIGHT,CONFERENCE_0,CONFERENCE_0_WINDOW_1,CONFERENCE_0_REFERENCEPOINT1,9.1571E-003
 Sky Daylight Factors,Intermediate Sky,01/01,CONFERENCE_0_DAYLIGHT,CONFERENCE_0,CONFERENCE_0_WINDOW_1,CONFERENCE_0_REFERENCEPOINT1,5.8233E-003
 Sky Daylight Factors,Overcast Sky,01/01,CONFERENCE_0_DAYLIGHT,CONFERENCE_0,CONFERENCE_0_WINDOW_1,CONFERENCE_0_REFERENCEPOINT1,3.0097E-003
 Sky Daylight Factors,Clear Sky,01/01,CONFERENCE_0_DAYLIGHT,CONFERENCE_0,CONFERENCE_0_WINDOW_2,CONFERENCE_0_REFERENCEPOINT1,7.0662E-003
 Sky Daylight Factors,Clear Turbid Sky,01/01,CONFERENCE_0_DAYLIGHT,CONFERENCE_0,CONFERENCE_0_WINDOW_2,CONFERENCE_0_REFERENCEPOINT1,6.6114E-003
 Sky Daylight Factors,Intermediate Sky,01/01,CONFERENCE_0_DAYLIGHT,CONFERENCE_0,CONFERENCE_0_WINDOW_2,CONFERENCE_0_REFERENCEPOINT1,6.6598E-003
 Sky Daylight Factors,Overcast Sky,01/01,CONFERENCE_0_DAYLIGHT,CONFERENCE_0,CONFERENCE_0_WINDOW_2,CONFERENCE_0_REFERENCEPOINT1,5.7345E-003
 Sky Daylight Factors,Clear Sky,01/01,CONFERENCE_0_DAYLIGHT,CONFERENCE_0,CONFERENCE_0_WINDOW_3,CONFERENCE_0_REFERENCEPOINT1,4.4803E-003
 Sky Daylight Factors,Clear Turbid Sky,01/01,CONFERENCE_0_DAYLIGHT,CONFERENCE_0,CONFERENCE_0_WINDOW_3,CONFERENCE_0_REFERENCEPOINT1,3.6961E-003
 Sky Daylight Factors,Intermediate Sky,01/01,CONFERENCE_0_DAYLIGHT,CONFERENCE_0,CONFERENCE_0_WINDOW_3,CONFERENCE_0_REFERENCEPOINT1,3.3900E-003
 Sky Daylight Factors,Overcast Sky,01/01,CONFERENCE_0_DAYLIGHT,CONFERENCE_0,CONFERENCE_0_WINDOW_3,CONFERENCE_0_REFERENCEPOINT1,4.6769E-003
 Sky Daylight Factors,Clear Sky,01/01,CONFERENCE_0_DAYLIGHT,CONFERENCE_0,CONFERENCE_0_WINDOW_4,CONFERENCE_0_REFERENCEPOINT1,6.5544E-003
 Sky Daylight Factors,Clear Turbid Sky,01/01,CONFERENCE_0_DAYLIGHT,CONFERENCE_0,CONFERENCE_0_WINDOW_4,CONFERENCE_0_REFERENCEPOINT1,6.2469E-003
 Sky Daylight Factors,Intermediate Sky,01/01,CONFERENCE_0_DAYLIGHT,CONFERENCE_0,CONFERENCE_0_WINDOW_4,CONFERENCE_0_REFERENCEPOINT1,6.4175E-003
 Sky Daylight Factors,Overcast Sky,01/01,CONFERENCE_0_DAYLIGHT,CONFERENCE_0,CONFERENCE_0_WINDOW_4,CONFERENCE_0_REFERENCEPOINT1,5.3902E-003
 Sky Daylight Factors,Clear Sky,01/01,BREAK_ROOM_0_DAYLIGHT,BREAK_ROOM_0,BREAK_ROOM_0_WINDOW_1,BREAK_ROOM_0_REFERENCEPOINT1,5.6568E-003
 Sky Daylight Factors,Clear Turbid Sky,01/01,BREAK_ROOM_0_DAYLIGHT,BREAK_ROOM_0,BREAK_ROOM_0_WINDOW_1,BREAK_ROOM_0_REFERENCEPOINT1,6.3025E-003
 Sky Daylight Factors,Intermediate Sky,01/01,BREAK_ROOM_0_DAYLIGHT,BREAK_ROOM_0,BREAK_ROOM_0_WINDOW_1,BREAK_ROOM_0_REFERENCEPOINT1,4.0094E-003
 Sky Daylight Factors,Overcast Sky,01/01,BREAK_ROOM_0_DAYLIGHT,BREAK_ROOM_0,BREAK_ROOM_0_WINDOW_1,BREAK_ROOM_0_REFERENCEPOINT1,2.0741E-003
 Sky Daylight Factors,Clear Sky,01/01,BREAK_ROOM_0_DAYLIGHT,BREAK_ROOM_0,BREAK_ROOM_0_WINDOW_2,BREAK_ROOM_0_REFERENCEPOINT1,5.6825E-003
 Sky Daylight Factors,Clear Turbid Sky,01/01,BREAK_ROOM_0_DAYLIGHT,BREAK_ROOM_0,BREAK_ROOM_0_WINDOW_2,BREAK_ROOM_0_REFERENCEPOINT1,5.5176E-003
 Sky Daylight Factors,Intermediate Sky,01/01,BREAK_ROOM_0_DAYLIGHT,BREAK_ROOM_0,BREAK_ROOM_0_WINDOW_2,BREAK_ROOM_0_REFERENCEPOINT1,5.5630E-003
 Sky Daylight Factors,Overcast Sky,01/01,BREAK_ROOM_0_DAYLIGHT,BREAK_ROOM_0,BREAK_ROOM_0_WINDOW_2,BREAK_ROOM_0_REFERENCEPOINT1,4.3438E-003
 Sky Daylight Factors,Clear Sky,01/01,BREAK_ROOM_0_DAYLIGHT,BREAK_ROOM_0,BREAK_ROOM_0_WINDOW_3,BREAK_ROOM_0_REFERENCEPOINT1,3.4139E-003
 Sky Daylight Factors,Clear Turbid Sky,01/01,BREAK_ROOM_0_DAYLIGHT,BREAK_ROOM_0,BREAK_ROOM_0_WINDOW_3,BREAK_ROOM_0_REFERENCEPOINT1,2.8001E-003
 Sky Daylight Factors,Intermediate Sky,01/01,BREAK_ROOM_0_DAYLIGHT,BREAK_ROOM_0,BREAK_ROOM_0_WINDOW_3,BREAK_ROOM_0_REFERENCEPOINT1,2.5876E-003
 Sky Daylight Factors,Overcast Sky,01/01,BREAK_ROOM_0_DAYLIGHT,BREAK_ROOM_0,BREAK_ROOM_0_WINDOW_3,BREAK_ROOM_0_REFERENCEPOINT1,3.6234E-003
 Sky Daylight Factors,Clear Sky,01/01,BREAK_ROOM_0_DAYLIGHT,BREAK_ROOM_0,BREAK_ROOM_0_WINDOW_4,BREAK_ROOM_0_REFERENCEPOINT1,6.9783E-003
 Sky Daylight Factors,Clear Turbid Sky,01/01,BREAK_ROOM_0_DAYLIGHT,BREAK_ROOM_0,BREAK_ROOM_0_WINDOW_4,BREAK_ROOM_0_REFERENCEPOINT1,6.5427E-003
 Sky Daylight Factors,Intermediate Sky,01/01,BREAK_ROOM_0_DAYLIGHT,BREAK_ROOM_0,BREAK_ROOM_0_WINDOW_4,BREAK_ROOM_0_REFERENCEPOINT1,6.5705E-003
 Sky Daylight Factors,Overcast Sky,01/01,BREAK_ROOM_0_DAYLIGHT,BREAK_ROOM_0,BREAK_ROOM_0_WINDOW_4,BREAK_ROOM_0_REFERENCEPOINT1,5.6345E-003
 Sky Daylight Factors,Clear Sky,01/01,LOBBY_1_DAYLIGHT,LOBBY_1,LOBBY_1_WINDOW_1,LOBBY_1_REFERENCEPOINT1,6.5526E-003
 Sky Daylight Factors,Clear Turbid Sky,01/01,LOBBY_1_DAYLIGHT,LOBBY_1,LOBBY_1_WINDOW_1,LOBBY_1_REFERENCEPOINT1,7.2949E-003
 Sky Daylight Factors,Intermediate Sky,01/01,LOBBY_1_DAYLIGHT,LOBBY_1,LOBBY_1_WINDOW_1,LOBBY_1_REFERENCEPOINT1,4.6589E-003
 Sky Daylight Factors,Overcast Sky,01/01,LOBBY_1_DAYLIGHT,LOBBY_1,LOBBY_1_WINDOW_1,LOBBY_1_REFERENCEPOINT1,2.4343E-003
 Sky Daylight Factors,Clear Sky,01/01,LOBBY_1_DAYLIGHT,LOBBY_1,LOBBY_1_WINDOW_2,LOBBY_1_REFERENCEPOINT1,4.5370E-003
 Sky Daylight Factors,Clear Turbid Sky,01/01,LOBBY_1_DAYLIGHT,LOBBY_1,LOBBY_1_WINDOW_2,LOBBY_1_REFERENCEPOINT1,4.2501E-003
 Sky Daylight Factors,Intermediate Sky,01/01,LOBBY_1_DAYLIGHT,LOBBY_1,LOBBY_1_WINDOW_2,LOBBY_1_REFERENCEPOINT1,4.2806E-003
 Sky Daylight Factors,Overcast Sky,01/01,LOBBY_1_DAYLIGHT,LOBBY_1,LOBBY_1_WINDOW_2,LOBBY_1_REFERENCEPOINT1,3.6970E-003
 Sky Daylight Factors,Clear Sky,01/01,LOBBY_1_DAYLIGHT,LOBBY_1,LOBBY_1_WINDOW_3,LOBBY_1_REFERENCEPOINT1,4.6613E-003
 Sky Daylight Factors,Clear Turbid Sky,01/01,LOBBY_1_DAYLIGHT,LOBBY_1,LOBBY_1_WINDOW_3,LOBBY_1_REFERENCEPOINT1,3.7938E-003
 Sky Daylight Factors,Intermediate Sky,01/01,LOBBY_1_DAYLIGHT,LOBBY_1,LOBBY_1_WINDOW_3,LOBBY_1_REFERENCEPOINT1,3.4030E-003
 Sky Daylight Factors,Overcast Sky,01/01,LOBBY_1_DAYLIGHT,LOBBY_1,LOBBY_1_WINDOW_3,LOBBY_1_REFERENCEPOINT1,4.7046E-003
[...]
 Sky Daylight Factors,Overcast Sky,01/01,CONFERENCE_1_DAYLIGHT,CONFERENCE_1,CONFERENCE_1_WINDOW_3,CONFERENCE_1_REFERENCEPOINT1,5.2862E-003
 Sky Daylight Factors,Clear Sky,01/01,CONFERENCE_1_DAYLIGHT,CONFERENCE_1,CONFERENCE_1_WINDOW_4,CONFERENCE_1_REFERENCEPOINT1,6.0084E-003
 Sky Daylight Factors,Clear Turbid Sky,01/01,CONFERENCE_1_DAYLIGHT,CONFERENCE_1,CONFERENCE_1_WINDOW_4,CONFERENCE_1_REFERENCEPOINT1,5.6397E-003
 Sky Daylight Factors,Intermediate Sky,01/01,CONFERENCE_1_DAYLIGHT,CONFERENCE_1,CONFERENCE_1_WINDOW_4,CONFERENCE_1_REFERENCEPOINT1,5.6632E-003
 Sky Daylight Factors,Overcast Sky,01/01,CONFERENCE_1_DAYLIGHT,CONFERENCE_1,CONFERENCE_1_WINDOW_4,CONFERENCE_1_REFERENCEPOINT1,4.8709E-003
 Sky Daylight Factors,Clear Sky,01/01,BREAK_ROOM_1_DAYLIGHT,BREAK_ROOM_1,BREAK_ROOM_1_WINDOW_1,BREAK_ROOM_1_REFERENCEPOINT1,7.3199E-003
 Sky Daylight Factors,Clear Turbid Sky,01/01,BREAK_ROOM_1_DAYLIGHT,BREAK_ROOM_1,BREAK_ROOM_1_WINDOW_1,BREAK_ROOM_1_REFERENCEPOINT1,8.1477E-003
 Sky Daylight Factors,Intermediate Sky,01/01,BREAK_ROOM_1_DAYLIGHT,BREAK_ROOM_1,BREAK_ROOM_1_WINDOW_1,BREAK_ROOM_1_REFERENCEPOINT1,5.2080E-003
 Sky Daylight Factors,Overcast Sky,01/01,BREAK_ROOM_1_DAYLIGHT,BREAK_ROOM_1,BREAK_ROOM_1_WINDOW_1,BREAK_ROOM_1_REFERENCEPOINT1,2.7270E-003
 Sky Daylight Factors,Clear Sky,01/01,BREAK_ROOM_1_DAYLIGHT,BREAK_ROOM_1,BREAK_ROOM_1_WINDOW_2,BREAK_ROOM_1_REFERENCEPOINT1,8.3198E-003
 Sky Daylight Factors,Clear Turbid Sky,01/01,BREAK_ROOM_1_DAYLIGHT,BREAK_ROOM_1,BREAK_ROOM_1_WINDOW_2,BREAK_ROOM_1_REFERENCEPOINT1,7.7871E-003
 Sky Daylight Factors,Intermediate Sky,01/01,BREAK_ROOM_1_DAYLIGHT,BREAK_ROOM_1,BREAK_ROOM_1_WINDOW_2,BREAK_ROOM_1_REFERENCEPOINT1,7.8439E-003
 Sky Daylight Factors,Overcast Sky,01/01,BREAK_ROOM_1_DAYLIGHT,BREAK_ROOM_1,BREAK_ROOM_1_WINDOW_2,BREAK_ROOM_1_REFERENCEPOINT1,6.7604E-003
 Sky Daylight Factors,Clear Sky,01/01,BREAK_ROOM_1_DAYLIGHT,BREAK_ROOM_1,BREAK_ROOM_1_WINDOW_3,BREAK_ROOM_1_REFERENCEPOINT1,5.2259E-003
 Sky Daylight Factors,Clear Turbid Sky,01/01,BREAK_ROOM_1_DAYLIGHT,BREAK_ROOM_1,BREAK_ROOM_1_WINDOW_3,BREAK_ROOM_1_REFERENCEPOINT1,4.2581E-003
 Sky Daylight Factors,Intermediate Sky,01/01,BREAK_ROOM_1_DAYLIGHT,BREAK_ROOM_1,BREAK_ROOM_1_WINDOW_3,BREAK_ROOM_1_REFERENCEPOINT1,3.8221E-003
 Sky Daylight Factors,Overcast Sky,01/01,BREAK_ROOM_1_DAYLIGHT,BREAK_ROOM_1,BREAK_ROOM_1_WINDOW_3,BREAK_ROOM_1_REFERENCEPOINT1,5.2742E-003
 Sky Daylight Factors,Clear Sky,01/01,BREAK_ROOM_1_DAYLIGHT,BREAK_ROOM_1,BREAK_ROOM_1_WINDOW_4,BREAK_ROOM_1_REFERENCEPOINT1,8.4965E-003
 Sky Daylight Factors,Clear Turbid Sky,01/01,BREAK_ROOM_1_DAYLIGHT,BREAK_ROOM_1,BREAK_ROOM_1_WINDOW_4,BREAK_ROOM_1_REFERENCEPOINT1,7.9760E-003
 Sky Daylight Factors,Intermediate Sky,01/01,BREAK_ROOM_1_DAYLIGHT,BREAK_ROOM_1,BREAK_ROOM_1_WINDOW_4,BREAK_ROOM_1_REFERENCEPOINT1,8.0092E-003
 Sky Daylight Factors,Overcast Sky,01/01,BREAK_ROOM_1_DAYLIGHT,BREAK_ROOM_1,BREAK_ROOM_1_WINDOW_4,BREAK_ROOM_1_REFERENCEPOINT1,6.8906E-003
 Sky Daylight Factors,Clear Sky,01/01,OFFICE_PRIVATE_1_DAYLIGHT,OFFICE_PRIVATE_1,OFFICE_PRIVATE_1_WINDOW_1,OFFICE_PRIVATE_1_REFERENCEPOINT1,7.2664E-003
 Sky Daylight Factors,Clear Turbid Sky,01/01,OFFICE_PRIVATE_1_DAYLIGHT,OFFICE_PRIVATE_1,OFFICE_PRIVATE_1_WINDOW_1,OFFICE_PRIVATE_1_REFERENCEPOINT1,8.0922E-003
 Sky Daylight Factors,Intermediate Sky,01/01,OFFICE_PRIVATE_1_DAYLIGHT,OFFICE_PRIVATE_1,OFFICE_PRIVATE_1_WINDOW_1,OFFICE_PRIVATE_1_REFERENCEPOINT1,5.1600E-003
 Sky Daylight Factors,Overcast Sky,01/01,OFFICE_PRIVATE_1_DAYLIGHT,OFFICE_PRIVATE_1,OFFICE_PRIVATE_1_WINDOW_1,OFFICE_PRIVATE_1_REFERENCEPOINT1,2.6853E-003
 Sky Daylight Factors,Clear Sky,01/01,OFFICE_PRIVATE_1_DAYLIGHT,OFFICE_PRIVATE_1,OFFICE_PRIVATE_1_WINDOW_2,OFFICE_PRIVATE_1_REFERENCEPOINT1,8.7831E-003
 Sky Daylight Factors,Clear Turbid Sky,01/01,OFFICE_PRIVATE_1_DAYLIGHT,OFFICE_PRIVATE_1,OFFICE_PRIVATE_1_WINDOW_2,OFFICE_PRIVATE_1_REFERENCEPOINT1,8.2216E-003
 Sky Daylight Factors,Intermediate Sky,01/01,OFFICE_PRIVATE_1_DAYLIGHT,OFFICE_PRIVATE_1,OFFICE_PRIVATE_1_WINDOW_2,OFFICE_PRIVATE_1_REFERENCEPOINT1,8.2814E-003
 Sky Daylight Factors,Overcast Sky,01/01,OFFICE_PRIVATE_1_DAYLIGHT,OFFICE_PRIVATE_1,OFFICE_PRIVATE_1_WINDOW_2,OFFICE_PRIVATE_1_REFERENCEPOINT1,7.1391E-003
 Sky Daylight Factors,Clear Sky,01/01,OFFICE_PRIVATE_1_DAYLIGHT,OFFICE_PRIVATE_1,OFFICE_PRIVATE_1_WINDOW_3,OFFICE_PRIVATE_1_REFERENCEPOINT1,5.2146E-003
 Sky Daylight Factors,Clear Turbid Sky,01/01,OFFICE_PRIVATE_1_DAYLIGHT,OFFICE_PRIVATE_1,OFFICE_PRIVATE_1_WINDOW_3,OFFICE_PRIVATE_1_REFERENCEPOINT1,4.2493E-003
 Sky Daylight Factors,Intermediate Sky,01/01,OFFICE_PRIVATE_1_DAYLIGHT,OFFICE_PRIVATE_1,OFFICE_PRIVATE_1_WINDOW_3,OFFICE_PRIVATE_1_REFERENCEPOINT1,3.8145E-003
 Sky Daylight Factors,Overcast Sky,01/01,OFFICE_PRIVATE_1_DAYLIGHT,OFFICE_PRIVATE_1,OFFICE_PRIVATE_1_WINDOW_3,OFFICE_PRIVATE_1_REFERENCEPOINT1,5.2627E-003
 Sky Daylight Factors,Clear Sky,01/01,OFFICE_PRIVATE_1_DAYLIGHT,OFFICE_PRIVATE_1,OFFICE_PRIVATE_1_WINDOW_4,OFFICE_PRIVATE_1_REFERENCEPOINT1,8.9600E-003
 Sky Daylight Factors,Clear Turbid Sky,01/01,OFFICE_PRIVATE_1_DAYLIGHT,OFFICE_PRIVATE_1,OFFICE_PRIVATE_1_WINDOW_4,OFFICE_PRIVATE_1_REFERENCEPOINT1,8.4112E-003
 Sky Daylight Factors,Intermediate Sky,01/01,OFFICE_PRIVATE_1_DAYLIGHT,OFFICE_PRIVATE_1,OFFICE_PRIVATE_1_WINDOW_4,OFFICE_PRIVATE_1_REFERENCEPOINT1,8.4462E-003
 Sky Daylight Factors,Overcast Sky,01/01,OFFICE_PRIVATE_1_DAYLIGHT,OFFICE_PRIVATE_1,OFFICE_PRIVATE_1_WINDOW_4,OFFICE_PRIVATE_1_REFERENCEPOINT1,7.2671E-003
 Sky Daylight Factors,Clear Sky,01/01,LOBBY_2_DAYLIGHT,LOBBY_2,LOBBY_2_WINDOW_1,LOBBY_2_REFERENCEPOINT1,6.4986E-003
 Sky Daylight Factors,Clear Turbid Sky,01/01,LOBBY_2_DAYLIGHT,LOBBY_2,LOBBY_2_WINDOW_1,LOBBY_2_REFERENCEPOINT1,7.2454E-003
 Sky Daylight Factors,Intermediate Sky,01/01,LOBBY_2_DAYLIGHT,LOBBY_2,LOBBY_2_WINDOW_1,LOBBY_2_REFERENCEPOINT1,4.5937E-003
 Sky Daylight Factors,Overcast Sky,01/01,LOBBY_2_DAYLIGHT,LOBBY_2,LOBBY_2_WINDOW_1,LOBBY_2_REFERENCEPOINT1,2.3557E-003
 Sky Daylight Factors,Clear Sky,01/01,LOBBY_2_DAYLIGHT,LOBBY_2,LOBBY_2_WINDOW_2,LOBBY_2_REFERENCEPOINT1,4.5593E-003
 Sky Daylight Factors,Clear Turbid Sky,01/01,LOBBY_2_DAYLIGHT,LOBBY_2,LOBBY_2_WINDOW_2,LOBBY_2_REFERENCEPOINT1,4.2710E-003
 Sky Daylight Factors,Intermediate Sky,01/01,LOBBY_2_DAYLIGHT,LOBBY_2,LOBBY_2_WINDOW_2,LOBBY_2_REFERENCEPOINT1,4.3017E-003
 Sky Daylight Factors,Overcast Sky,01/01,LOBBY_2_DAYLIGHT,LOBBY_2,LOBBY_2_WINDOW_2,LOBBY_2_REFERENCEPOINT1,3.7152E-003
 Sky Daylight Factors,Clear Sky,01/01,LOBBY_2_DAYLIGHT,LOBBY_2,LOBBY_2_WINDOW_3,LOBBY_2_REFERENCEPOINT1,4.5342E-003
 Sky Daylight Factors,Clear Turbid Sky,01/01,LOBBY_2_DAYLIGHT,LOBBY_2,LOBBY_2_WINDOW_3,LOBBY_2_REFERENCEPOINT1,3.6614E-003
 Sky Daylight Factors,Intermediate Sky,01/01,LOBBY_2_DAYLIGHT,LOBBY_2,LOBBY_2_WINDOW_3,LOBBY_2_REFERENCEPOINT1,3.2683E-003
 Sky Daylight Factors,Overcast Sky,01/01,LOBBY_2_DAYLIGHT,LOBBY_2,LOBBY_2_WINDOW_3,LOBBY_2_REFERENCEPOINT1,4.5778E-003
 Sky Daylight Factors,Clear Sky,01/01,LOBBY_2_DAYLIGHT,LOBBY_2,LOBBY_2_WINDOW_4,LOBBY_2_REFERENCEPOINT1,4.5333E-003
 Sky Daylight Factors,Clear Turbid Sky,01/01,LOBBY_2_DAYLIGHT,LOBBY_2,LOBBY_2_WINDOW_4,LOBBY_2_REFERENCEPOINT1,4.2515E-003
 Sky Daylight Factors,Intermediate Sky,01/01,LOBBY_2_DAYLIGHT,LOBBY_2,LOBBY_2_WINDOW_4,LOBBY_2_REFERENCEPOINT1,4.2695E-003
 Sky Daylight Factors,Overcast Sky,01/01,LOBBY_2_DAYLIGHT,LOBBY_2,LOBBY_2_WINDOW_4,LOBBY_2_REFERENCEPOINT1,3.6640E-003
 Sky Daylight Factors,Clear Sky,01/01,CONFERENCE_2_DAYLIGHT,CONFERENCE_2,CONFERENCE_2_WINDOW_1,CONFERENCE_2_REFERENCEPOINT1,5.5704E-003
 Sky Daylight Factors,Clear Turbid Sky,01/01,CONFERENCE_2_DAYLIGHT,CONFERENCE_2,CONFERENCE_2_WINDOW_1,CONFERENCE_2_REFERENCEPOINT1,6.2010E-003
 Sky Daylight Factors,Intermediate Sky,01/01,CONFERENCE_2_DAYLIGHT,CONFERENCE_2,CONFERENCE_2_WINDOW_1,CONFERENCE_2_REFERENCEPOINT1,3.9617E-003
 Sky Daylight Factors,Overcast Sky,01/01,CONFERENCE_2_DAYLIGHT,CONFERENCE_2,CONFERENCE_2_WINDOW_1,CONFERENCE_2_REFERENCEPOINT1,2.0718E-003
 Sky Daylight Factors,Clear Sky,01/01,CONFERENCE_2_DAYLIGHT,CONFERENCE_2,CONFERENCE_2_WINDOW_2,CONFERENCE_2_REFERENCEPOINT1,6.8007E-003
 Sky Daylight Factors,Clear Turbid Sky,01/01,CONFERENCE_2_DAYLIGHT,CONFERENCE_2,CONFERENCE_2_WINDOW_2,CONFERENCE_2_REFERENCEPOINT1,6.3710E-003
 Sky Daylight Factors,Intermediate Sky,01/01,CONFERENCE_2_DAYLIGHT,CONFERENCE_2,CONFERENCE_2_WINDOW_2,CONFERENCE_2_REFERENCEPOINT1,6.4168E-003
 Sky Daylight Factors,Overcast Sky,01/01,CONFERENCE_2_DAYLIGHT,CONFERENCE_2,CONFERENCE_2_WINDOW_2,CONFERENCE_2_REFERENCEPOINT1,5.5427E-003
 Sky Daylight Factors,Clear Sky,01/01,CONFERENCE_2_DAYLIGHT,CONFERENCE_2,CONFERENCE_2_WINDOW_3,CONFERENCE_2_REFERENCEPOINT1,3.9229E-003
 Sky Daylight Factors,Clear Turbid Sky,01/01,CONFERENCE_2_DAYLIGHT,CONFERENCE_2,CONFERENCE_2_WINDOW_3,CONFERENCE_2_REFERENCEPOINT1,3.1873E-003
 Sky Daylight Factors,Intermediate Sky,01/01,CONFERENCE_2_DAYLIGHT,CONFERENCE_2,CONFERENCE_2_WINDOW_3,CONFERENCE_2_REFERENCEPOINT1,2.8560E-003
 Sky Daylight Factors,Overcast Sky,01/01,CONFERENCE_2_DAYLIGHT,CONFERENCE_2,CONFERENCE_2_WINDOW_3,CONFERENCE_2_REFERENCEPOINT1,3.9596E-003
 Sky Daylight Factors,Clear Sky,01/01,CONFERENCE_2_DAYLIGHT,CONFERENCE_2,CONFERENCE_2_WINDOW_4,CONFERENCE_2_REFERENCEPOINT1,6.6696E-003
 Sky Daylight Factors,Clear Turbid Sky,01/01,CONFERENCE_2_DAYLIGHT,CONFERENCE_2,CONFERENCE_2_WINDOW_4,CONFERENCE_2_REFERENCEPOINT1,6.2497E-003
 Sky Daylight Factors,Intermediate Sky,01/01,CONFERENCE_2_DAYLIGHT,CONFERENCE_2,CONFERENCE_2_WINDOW_4,CONFERENCE_2_REFERENCEPOINT1,6.2765E-003
 Sky Daylight Factors,Overcast Sky,01/01,CONFERENCE_2_DAYLIGHT,CONFERENCE_2,CONFERENCE_2_WINDOW_4,CONFERENCE_2_REFERENCEPOINT1,5.3742E-003
 Sky Daylight Factors,Clear Sky,01/01,BREAK_ROOM_2_DAYLIGHT,BREAK_ROOM_2,BREAK_ROOM_2_WINDOW_1,BREAK_ROOM_2_REFERENCEPOINT1,7.6437E-003
 Sky Daylight Factors,Clear Turbid Sky,01/01,BREAK_ROOM_2_DAYLIGHT,BREAK_ROOM_2,BREAK_ROOM_2_WINDOW_1,BREAK_ROOM_2_REFERENCEPOINT1,8.5092E-003
 Sky Daylight Factors,Intermediate Sky,01/01,BREAK_ROOM_2_DAYLIGHT,BREAK_ROOM_2,BREAK_ROOM_2_WINDOW_1,BREAK_ROOM_2_REFERENCEPOINT1,5.4357E-003
 Sky Daylight Factors,Overcast Sky,01/01,BREAK_ROOM_2_DAYLIGHT,BREAK_ROOM_2,BREAK_ROOM_2_WINDOW_1,BREAK_ROOM_2_REFERENCEPOINT1,2.8417E-003
 Sky Daylight Factors,Clear Sky,01/01,BREAK_ROOM_2_DAYLIGHT,BREAK_ROOM_2,BREAK_ROOM_2_WINDOW_2,BREAK_ROOM_2_REFERENCEPOINT1,6.1566E-003
 Sky Daylight Factors,Clear Turbid Sky,01/01,BREAK_ROOM_2_DAYLIGHT,BREAK_ROOM_2,BREAK_ROOM_2_WINDOW_2,BREAK_ROOM_2_REFERENCEPOINT1,5.7547E-003
 Sky Daylight Factors,Intermediate Sky,01/01,BREAK_ROOM_2_DAYLIGHT,BREAK_ROOM_2,BREAK_ROOM_2_WINDOW_2,BREAK_ROOM_2_REFERENCEPOINT1,5.7976E-003
 Sky Daylight Factors,Overcast Sky,01/01,BREAK_ROOM_2_DAYLIGHT,BREAK_ROOM_2,BREAK_ROOM_2_WINDOW_2,BREAK_ROOM_2_REFERENCEPOINT1,4.9801E-003
 Sky Daylight Factors,Clear Sky,01/01,BREAK_ROOM_2_DAYLIGHT,BREAK_ROOM_2,BREAK_ROOM_2_WINDOW_3,BREAK_ROOM_2_REFERENCEPOINT1,5.1717E-003
 Sky Daylight Factors,Clear Turbid Sky,01/01,BREAK_ROOM_2_DAYLIGHT,BREAK_ROOM_2,BREAK_ROOM_2_WINDOW_3,BREAK_ROOM_2_REFERENCEPOINT1,4.1588E-003
 Sky Daylight Factors,Intermediate Sky,01/01,BREAK_ROOM_2_DAYLIGHT,BREAK_ROOM_2,BREAK_ROOM_2_WINDOW_3,BREAK_ROOM_2_REFERENCEPOINT1,3.7026E-003
 Sky Daylight Factors,Overcast Sky,01/01,BREAK_ROOM_2_DAYLIGHT,BREAK_ROOM_2,BREAK_ROOM_2_WINDOW_3,BREAK_ROOM_2_REFERENCEPOINT1,5.2223E-003
 Sky Daylight Factors,Clear Sky,01/01,BREAK_ROOM_2_DAYLIGHT,BREAK_ROOM_2,BREAK_ROOM_2_WINDOW_4,BREAK_ROOM_2_REFERENCEPOINT1,6.4021E-003
 Sky Daylight Factors,Clear Turbid Sky,01/01,BREAK_ROOM_2_DAYLIGHT,BREAK_ROOM_2,BREAK_ROOM_2_WINDOW_4,BREAK_ROOM_2_REFERENCEPOINT1,6.0094E-003
 Sky Daylight Factors,Intermediate Sky,01/01,BREAK_ROOM_2_DAYLIGHT,BREAK_ROOM_2,BREAK_ROOM_2_WINDOW_4,BREAK_ROOM_2_REFERENCEPOINT1,6.0344E-003
 Sky Daylight Factors,Overcast Sky,01/01,BREAK_ROOM_2_DAYLIGHT,BREAK_ROOM_2,BREAK_ROOM_2_WINDOW_4,BREAK_ROOM_2_REFERENCEPOINT1,5.1906E-003
 Sky Daylight Factors,Clear Sky,01/01,OFFICE_OPEN_2_DAYLIGHT,OFFICE_OPEN_2,OFFICE_OPEN_2_WINDOW_1,OFFICE_OPEN_2_REFERENCEPOINT1,4.0334E-003
 Sky Daylight Factors,Clear Turbid Sky,01/01,OFFICE_OPEN_2_DAYLIGHT,OFFICE_OPEN_2,OFFICE_OPEN_2_WINDOW_1,OFFICE_OPEN_2_REFERENCEPOINT1,4.4958E-003
 Sky Daylight Factors,Intermediate Sky,01/01,OFFICE_OPEN_2_DAYLIGHT,OFFICE_OPEN_2,OFFICE_OPEN_2_WINDOW_1,OFFICE_OPEN_2_REFERENCEPOINT1,2.8537E-003
 Sky Daylight Factors,Overcast Sky,01/01,OFFICE_OPEN_2_DAYLIGHT,OFFICE_OPEN_2,OFFICE_OPEN_2_WINDOW_1,OFFICE_OPEN_2_REFERENCEPOINT1,1.4678E-003
 Sky Daylight Factors,Clear Sky,01/01,OFFICE_OPEN_2_DAYLIGHT,OFFICE_OPEN_2,OFFICE_OPEN_2_WINDOW_2,OFFICE_OPEN_2_REFERENCEPOINT1,4.4502E-003
 Sky Daylight Factors,Clear Turbid Sky,01/01,OFFICE_OPEN_2_DAYLIGHT,OFFICE_OPEN_2,OFFICE_OPEN_2_WINDOW_2,OFFICE_OPEN_2_REFERENCEPOINT1,4.1683E-003
 Sky Daylight Factors,Intermediate Sky,01/01,OFFICE_OPEN_2_DAYLIGHT,OFFICE_OPEN_2,OFFICE_OPEN_2_WINDOW_2,OFFICE_OPEN_2_REFERENCEPOINT1,4.1983E-003
 Sky Daylight Factors,Overcast Sky,01/01,OFFICE_OPEN_2_DAYLIGHT,OFFICE_OPEN_2,OFFICE_OPEN_2_WINDOW_2,OFFICE_OPEN_2_REFERENCEPOINT1,3.6248E-003
 Sky Daylight Factors,Clear Sky,01/01,OFFICE_OPEN_2_DAYLIGHT,OFFICE_OPEN_2,OFFICE_OPEN_2_WINDOW_3,OFFICE_OPEN_2_REFERENCEPOINT1,2.8897E-003
 Sky Daylight Factors,Clear Turbid Sky,01/01,OFFICE_OPEN_2_DAYLIGHT,OFFICE_OPEN_2,OFFICE_OPEN_2_WINDOW_3,OFFICE_OPEN_2_REFERENCEPOINT1,2.3513E-003
 Sky Daylight Factors,Intermediate Sky,01/01,OFFICE_OPEN_2_DAYLIGHT,OFFICE_OPEN_2,OFFICE_OPEN_2_WINDOW_3,OFFICE_OPEN_2_REFERENCEPOINT1,2.1088E-003
 Sky Daylight Factors,Overcast Sky,01/01,OFFICE_OPEN_2_DAYLIGHT,OFFICE_OPEN_2,OFFICE_OPEN_2_WINDOW_3,OFFICE_OPEN_2_REFERENCEPOINT1,2.9165E-003
 Sky Daylight Factors,Clear Sky,01/01,OFFICE_OPEN_2_DAYLIGHT,OFFICE_OPEN_2,OFFICE_OPEN_2_WINDOW_4,OFFICE_OPEN_2_REFERENCEPOINT1,4.4431E-003
 Sky Daylight Factors,Clear Turbid Sky,01/01,OFFICE_OPEN_2_DAYLIGHT,OFFICE_OPEN_2,OFFICE_OPEN_2_WINDOW_4,OFFICE_OPEN_2_REFERENCEPOINT1,4.1676E-003
 Sky Daylight Factors,Intermediate Sky,01/01,OFFICE_OPEN_2_DAYLIGHT,OFFICE_OPEN_2,OFFICE_OPEN_2_WINDOW_4,OFFICE_OPEN_2_REFERENCEPOINT1,4.1851E-003
 Sky Daylight Factors,Overcast Sky,01/01,OFFICE_OPEN_2_DAYLIGHT,OFFICE_OPEN_2,OFFICE_OPEN_2_WINDOW_4,OFFICE_OPEN_2_REFERENCEPOINT1,3.5931E-003
 Sky Daylight Factors,Clear Sky,01/01,OFFICE_PRIVATE_2_DAYLIGHT,OFFICE_PRIVATE_2,OFFICE_PRIVATE_2_WINDOW_1,OFFICE_PRIVATE_2_REFERENCEPOINT1,8.3029E-003
 Sky Daylight Factors,Clear Turbid Sky,01/01,OFFICE_PRIVATE_2_DAYLIGHT,OFFICE_PRIVATE_2,OFFICE_PRIVATE_2_WINDOW_1,OFFICE_PRIVATE_2_REFERENCEPOINT1,9.2417E-003
 Sky Daylight Factors,Intermediate Sky,01/01,OFFICE_PRIVATE_2_DAYLIGHT,OFFICE_PRIVATE_2,OFFICE_PRIVATE_2_WINDOW_1,OFFICE_PRIVATE_2_REFERENCEPOINT1,5.9079E-003
 Sky Daylight Factors,Overcast Sky,01/01,OFFICE_PRIVATE_2_DAYLIGHT,OFFICE_PRIVATE_2,OFFICE_PRIVATE_2_WINDOW_1,OFFICE_PRIVATE_2_REFERENCEPOINT1,3.0942E-003
 Sky Daylight Factors,Clear Sky,01/01,OFFICE_PRIVATE_2_DAYLIGHT,OFFICE_PRIVATE_2,OFFICE_PRIVATE_2_WINDOW_2,OFFICE_PRIVATE_2_REFERENCEPOINT1,8.0942E-003
 Sky Daylight Factors,Clear Turbid Sky,01/01,OFFICE_PRIVATE_2_DAYLIGHT,OFFICE_PRIVATE_2,OFFICE_PRIVATE_2_WINDOW_2,OFFICE_PRIVATE_2_REFERENCEPOINT1,7.5842E-003
 Sky Daylight Factors,Intermediate Sky,01/01,OFFICE_PRIVATE_2_DAYLIGHT,OFFICE_PRIVATE_2,OFFICE_PRIVATE_2_WINDOW_2,OFFICE_PRIVATE_2_REFERENCEPOINT1,7.6385E-003
 Sky Daylight Factors,Overcast Sky,01/01,OFFICE_PRIVATE_2_DAYLIGHT,OFFICE_PRIVATE_2,OFFICE_PRIVATE_2_WINDOW_2,OFFICE_PRIVATE_2_REFERENCEPOINT1,6.6010E-003
 Sky Daylight Factors,Clear Sky,01/01,OFFICE_PRIVATE_2_DAYLIGHT,OFFICE_PRIVATE_2,OFFICE_PRIVATE_2_WINDOW_3,OFFICE_PRIVATE_2_REFERENCEPOINT1,5.9357E-003
 Sky Daylight Factors,Clear Turbid Sky,01/01,OFFICE_PRIVATE_2_DAYLIGHT,OFFICE_PRIVATE_2,OFFICE_PRIVATE_2_WINDOW_3,OFFICE_PRIVATE_2_REFERENCEPOINT1,4.8364E-003
 Sky Daylight Factors,Intermediate Sky,01/01,OFFICE_PRIVATE_2_DAYLIGHT,OFFICE_PRIVATE_2,OFFICE_PRIVATE_2_WINDOW_3,OFFICE_PRIVATE_2_REFERENCEPOINT1,4.3412E-003
 Sky Daylight Factors,Overcast Sky,01/01,OFFICE_PRIVATE_2_DAYLIGHT,OFFICE_PRIVATE_2,OFFICE_PRIVATE_2_WINDOW_3,OFFICE_PRIVATE_2_REFERENCEPOINT1,5.9906E-003
 Sky Daylight Factors,Clear Sky,01/01,OFFICE_PRIVATE_2_DAYLIGHT,OFFICE_PRIVATE_2,OFFICE_PRIVATE_2_WINDOW_4,OFFICE_PRIVATE_2_REFERENCEPOINT1,8.0816E-003
 Sky Daylight Factors,Clear Turbid Sky,01/01,OFFICE_PRIVATE_2_DAYLIGHT,OFFICE_PRIVATE_2,OFFICE_PRIVATE_2_WINDOW_4,OFFICE_PRIVATE_2_REFERENCEPOINT1,7.5832E-003
 Sky Daylight Factors,Intermediate Sky,01/01,OFFICE_PRIVATE_2_DAYLIGHT,OFFICE_PRIVATE_2,OFFICE_PRIVATE_2_WINDOW_4,OFFICE_PRIVATE_2_REFERENCEPOINT1,7.6150E-003
 Sky Daylight Factors,Overcast Sky,01/01,OFFICE_PRIVATE_2_DAYLIGHT,OFFICE_PRIVATE_2,OFFICE_PRIVATE_2_WINDOW_4,OFFICE_PRIVATE_2_REFERENCEPOINT1,6.5439E-003
Environment:WarmupDays,  6
! <Warmup Convergence Information>,Zone Name,Environment Type/Name,Average Warmup Temperature Difference {deltaC},Std Dev Warmup Temperature Difference {deltaC},Max Temperature Pass/Fail Convergence,Min Temperature Pass/Fail Convergence,Average Warmup Load Difference {W},Std Dev Warmup Load Difference {W},Heating Load Pass/Fail Convergence,Cooling Load Pass/Fail Convergence
 Warmup Convergence Information,LOBBY_0,RunPeriod: YEAR ROUND RUN PERIOD,0.1663377421,0.2848575216,Pass,Pass,7.6529953333E-003,1.2550624743E-002,Pass,Pass
 Warmup Convergence Information,CONFERENCE_0,RunPeriod: YEAR ROUND RUN PERIOD,0.1793697247,0.2865995085,Pass,Pass,8.4229545731E-003,1.2806537413E-002,Pass,Pass
 Warmup Convergence Information,BREAK_ROOM_0,RunPeriod: YEAR ROUND RUN PERIOD,0.1698678934,0.2871485456,Pass,Pass,7.9382917735E-003,1.2798930285E-002,Pass,Pass
 Warmup Convergence Information,STORAGE_0,RunPeriod: YEAR ROUND RUN PERIOD,0.1793285330,0.2842252680,Pass,Pass,8.3148937350E-003,1.2523527123E-002,Pass,Pass
 Warmup Convergence Information,LOBBY_1,RunPeriod: YEAR ROUND RUN PERIOD,0.1627972260,0.2879807259,Pass,Pass,7.4455511333E-003,1.2625974223E-002,Pass,Pass
 Warmup Convergence Information,CONFERENCE_1,RunPeriod: YEAR ROUND RUN PERIOD,0.1690422089,0.2852657989,Pass,Pass,7.8058246737E-003,1.2580447345E-002,Pass,Pass
 Warmup Convergence Information,BREAK_ROOM_1,RunPeriod: YEAR ROUND RUN PERIOD,0.1833967374,0.2877807833,Pass,Pass,8.6533179033E-003,1.2870583055E-002,Pass,Pass
 Warmup Convergence Information,MECHANICAL_1,RunPeriod: YEAR ROUND RUN PERIOD,0.1737864521,0.2838853440,Pass,Pass,7.9704779489E-003,1.2387130925E-002,Pass,Pass
 Warmup Convergence Information,OFFICE_PRIVATE_1,RunPeriod: YEAR ROUND RUN PERIOD,0.1855590226,0.2871000761,Pass,Pass,8.7101501631E-003,1.2793411763E-002,Pass,Pass
 Warmup Convergence Information,LOBBY_2,RunPeriod: YEAR ROUND RUN PERIOD,0.1627177072,0.2879640477,Pass,Pass,7.4287299423E-003,1.2608996503E-002,Pass,Pass
 Warmup Convergence Information,CONFERENCE_2,RunPeriod: YEAR ROUND RUN PERIOD,0.1672193733,0.2860438902,Pass,Pass,7.6960838407E-003,1.2579813794E-002,Pass,Pass
 Warmup Convergence Information,BREAK_ROOM_2,RunPeriod: YEAR ROUND RUN PERIOD,0.1734997233,0.2878700010,Pass,Pass,8.1020845261E-003,1.2813762911E-002,Pass,Pass
 Warmup Convergence Information,MECHANICAL_2,RunPeriod: YEAR ROUND RUN PERIOD,0.1686676897,0.2834247794,Pass,Pass,7.6701766996E-003,1.2282623713E-002,Pass,Pass
 Warmup Convergence Information,OFFICE_OPEN_2,RunPeriod: YEAR ROUND RUN PERIOD,0.1595325794,0.2913065298,Pass,Pass,7.2894350322E-003,1.2697144649E-002,Pass,Pass
 Warmup Convergence Information,OFFICE_PRIVATE_2,RunPeriod: YEAR ROUND RUN PERIOD,0.1851898087,0.2877008071,Pass,Pass,8.6830818988E-003,1.2821803555E-002,Pass,Pass
 Warmup Convergence Information,STORAGE_2,RunPeriod: YEAR ROUND RUN PERIOD,0.1759646779,0.2839769719,Pass,Pass,8.0832837535E-003,1.2402029979E-002,Pass,Pass
! <Program Control Information:Threads/Parallel Sims>, Threading Supported,Maximum Number of Threads, Env Set Threads (OMP_NUM_THREADS), EP Env Set Threads (EP_OMP_NUM_THREADS), IDF Set Threads, Number of Threads Used (Interior Radiant Exchange), Number Nominal Surfaces, Number Parallel Sims
Program Control:Threads/Parallel Sims, No,1, N/A, N/A, N/A, N/A, N/A, N/A
End of Data
