Program Version,EnergyPlus, Version 24.2.0-94a887817b, YMD=2025.11.03 15:08
! <Version>, Version ID
 Version, 24.2.0
! <Timesteps per Hour>, #TimeSteps, Minutes per TimeStep {minutes}
 Timesteps per Hour,  4, 15
! <System Convergence Limits>, Minimum System TimeStep {minutes}, Max HVAC Iterations, Minimum Plant Iterations, Maximum Plant Iterations
 System Convergence Limits, 1, 20, 2, 8
! <Simulation Control>, Do Zone Sizing, Do System Sizing, Do Plant Sizing, Do Design Days, Do Weather Simulation, Do HVAC Sizing Simulation
 Simulation Control, No, No, No, No, Yes, No
! <Performance Precision Tradeoffs>, Use Coil Direct Simulation, Zone Radiant Exchange Algorithm, Override Mode, Number of Timestep In Hour, Force Euler Method, Minimum Number of Warmup Days, Force Suppress All Begin Environment Resets, Minimum System Timestep, MaxZoneTempDiff, MaxAllowedDelTemp
 Performance Precision Tradeoffs, No, ScriptF, Normal, 4, No, 1, No, 1.0, 0.300, 2.0000E-003
! <Output Reporting Tolerances>, Tolerance for Time Heating Setpoint Not Met, Tolerance for Zone Cooling Setpoint Not Met Time
 Output Reporting Tolerances, 0.200, 0.200, 
! <Site:GroundTemperature:BuildingSurface>,Jan{C},Feb{C},Mar{C},Apr{C},May{C},Jun{C},Jul{C},Aug{C},Sep{C},Oct{C},Nov{C},Dec{C}
 Site:GroundTemperature:BuildingSurface,  13.00,  12.00,  11.00,  10.00,  11.00,  13.00,  15.00,  16.00,  16.00,  15.00,  14.00,  13.00
! <Site:GroundTemperature:FCfactorMethod>,Jan{C},Feb{C},Mar{C},Apr{C},May{C},Jun{C},Jul{C},Aug{C},Sep{C},Oct{C},Nov{C},Dec{C}
 Site:GroundTemperature:FCfactorMethod,  -1.89,  -3.06,  -0.99,   2.23,  10.68,  17.20,  21.60,  22.94,  20.66,  15.60,   8.83,   2.56
! <Site:GroundTemperature:Shallow>,Jan{C},Feb{C},Mar{C},Apr{C},May{C},Jun{C},Jul{C},Aug{C},Sep{C},Oct{C},Nov{C},Dec{C}
 Site:GroundTemperature:Shallow,  11.00,  10.00,   9.00,   8.00,   9.00,  11.00,  13.00,  14.00,  14.00,  13.00,  12.00,  11.00
! <Site:GroundTemperature:Deep>,Jan{C},Feb{C},Mar{C},Apr{C},May{C},Jun{C},Jul{C},Aug{C},Sep{C},Oct{C},Nov{C},Dec{C}
 Site:GroundTemperature:Deep,   9.00,   8.00,   7.00,   6.00,   7.00,   9.00,  11.00,  12.00,  12.00,  11.00,  10.00,   9.00
! <Site:GroundReflectance>,Jan{dimensionless},Feb{dimensionless},Mar{dimensionless},Apr{dimensionless},May{dimensionless},Jun{dimensionless},Jul{dimensionless},Aug{dimensionless},Sep{dimensionless},Oct{dimensionless},Nov{dimensionless},Dec{dimensionless}
 Site:GroundReflectance,  0.20,  0.20,  0.20,  0.20,  0.20,  0.20,  0.20,  0.20,  0.20,  0.20,  0.20,  0.20
! <Site:GroundReflectance:SnowModifier>, Normal, Daylighting {dimensionless}
 Site:GroundReflectance:SnowModifier,   1.000,   1.000
! <Site:GroundReflectance:Snow>,Jan{dimensionless},Feb{dimensionless},Mar{dimensionless},Apr{dimensionless},May{dimensionless},Jun{dimensionless},Jul{dimensionless},Aug{dimensionless},Sep{dimensionless},Oct{dimensionless},Nov{dimensionless},Dec{dimensionless}
 Site:GroundReflectance:Snow,  0.20,  0.20,  0.20,  0.20,  0.20,  0.20,  0.20,  0.20,  0.20,  0.20,  0.20,  0.20
! <Site:GroundReflectance:Snow:Daylighting>,Jan{dimensionless},Feb{dimensionless},Mar{dimensionless},Apr{dimensionless},May{dimensionless},Jun{dimensionless},Jul{dimensionless},Aug{dimensionless},Sep{dimensionless},Oct{dimensionless},Nov{dimensionless},Dec{dimensionless}
 Site:GroundReflectance:Snow:Daylighting,  0.20,  0.20,  0.20,  0.20,  0.20,  0.20,  0.20,  0.20,  0.20,  0.20,  0.20,  0.20
! <Environment:Weather Station>,Wind Sensor Height Above Ground {m},Wind Speed Profile Exponent {},Wind Speed Profile Boundary Layer Thickness {m},Air Temperature Sensor Height Above Ground {m},Wind Speed Modifier Coefficient-Internal,Temperature Modifier Coefficient-Internal
Environment:Weather Station,10.000,0.140,270.000,1.500,1.586,9.750E-003
! <Site:Location>, Location Name, Latitude {N+/S- Deg}, Longitude {E+/W- Deg},  Time Zone Number {GMT+/-}, Elevation {m},  Standard Pressure at Elevation {Pa}, Standard RhoAir at Elevation
Site:Location,Chicago Ohare Intl Ap IL USA TMY3 WMO#=725300,41.98,-87.92,-6.00,201.00,98934,1.1759
! <Site Water Mains Temperature Information>,Calculation Method{},Water Mains Temperature Schedule Name{},Annual Average Outdoor Air Temperature{C},Maximum Difference In Monthly Average Outdoor Air Temperatures{deltaC},Fixed Default Water Mains Temperature{C}
Site Water Mains Temperature Information,FixedDefault,NA,NA,NA,10.0
! <Building Information>, Building Name,North Axis {deg},Terrain,  Loads Convergence Tolerance Value,Temperature Convergence Tolerance Value,  Solar Distribution,Maximum Number of Warmup Days,Minimum Number of Warmup Days
 Building Information,Professional Building,0.000,Suburbs,4.00000E-002,0.20000,FullInteriorAndExterior,15,6
! <Inside Convection Algorithm>, Algorithm {Simple | TARP | CeilingDiffuser | AdaptiveConvectionAlgorithm}
Inside Convection Algorithm,TARP
! <Outside Convection Algorithm>, Algorithm {SimpleCombined | TARP | MoWitt | DOE-2 | AdaptiveConvectionAlgorithm}
Outside Convection Algorithm,DOE-2
! <Sky Radiance Distribution>, Value {Anisotropic}
Sky Radiance Distribution,Anisotropic
! <Zone Air Solution Algorithm>, Algorithm {ThirdOrderBackwardDifference | AnalyticalSolution | EulerMethod}, Space Heat Balance Sizing, Space Heat Balance Simulation
 Zone Air Solution Algorithm, ThirdOrderBackwardDifference, No, No
! <Zone Air Carbon Dioxide Balance Simulation>, Simulation {Yes/No}, Carbon Dioxide Concentration
 Zone Air Carbon Dioxide Balance Simulation, No,N/A
! <Zone Air Generic Contaminant Balance Simulation>, Simulation {Yes/No}, Generic Contaminant Concentration
 Zone Air Generic Contaminant Balance Simulation, No,N/A
! <Zone Air Mass Flow Balance Simulation>, Enforce Mass Balance, Adjust Zone Mixing and Return {AdjustMixingOnly | AdjustReturnOnly | AdjustMixingThenReturn | AdjustReturnThenMixing | None}, Adjust Zone Infiltration {AddInfiltration | AdjustInfiltration | None}, Infiltration Zones {MixingSourceZonesOnly | AllZones}
 Zone Air Mass Flow Balance Simulation, No,N/A,N/A,N/A
! <HVACSystemRootFindingAlgorithm>, Value {RegulaFalsi | Bisection | BisectionThenRegulaFalsi | RegulaFalsiThenBisection}
 HVACSystemRootFindingAlgorithm, RegulaFalsi
! <Environment:Site Atmospheric Variation>,Wind Speed Profile Exponent {},Wind Speed Profile Boundary Layer Thickness {m},Air Temperature Gradient Coefficient {K/m}
Environment:Site Atmospheric Variation,0.220,370.000,6.500000E-003
! <Shadowing/Sun Position Calculations Annual Simulations>, Shading Calculation Method, Shading Calculation Update Frequency Method, Shading Calculation Update Frequency {days}, Maximum Figures in Shadow Overlap Calculations {}, Polygon Clipping Algorithm, Pixel Counting Resolution, Sky Diffuse Modeling Algorithm, Output External Shading Calculation Results, Disable Self-Shading Within Shading Zone Groups, Disable Self-Shading From Shading Zone Groups to Other Zones
Shadowing/Sun Position Calculations Annual Simulations,PolygonClipping,Periodic,20,15000,SutherlandHodgman,512,SimpleSkyDiffuseModeling,No,No,No
! <Surface Geometry>,Starting Corner,Vertex Input Direction,Coordinate System,Daylight Reference Point Coordinate System,Rectangular (Simple) Surface Coordinate System
 Surface Geometry,UpperLeftCorner,Counterclockwise,RelativeCoordinateSystem,RelativeCoordinateSystem,RelativeToZoneOrigin
! <Surface Heat Transfer Algorithm>, Value {CTF - ConductionTransferFunction | EMPD - MoisturePenetrationDepthConductionTransferFunction | CondFD - ConductionFiniteDifference | HAMT - CombinedHeatAndMoistureFiniteElement} - Description,Inside Surface Max Temperature Limit{C}, Surface Convection Coefficient Lower Limit {W/m2-K}, Surface Convection Coefficient Upper Limit {W/m2-K}
Surface Heat Transfer Algorithm, CTF - ConductionTransferFunction,200,0.10,1000.0
! <Shading Summary>, Number of Fixed Detached Shades, Number of Building Detached Shades, Number of Attached Shades
 Shading Summary,0,0,0
! <Zone Summary>, Number of Zones, Number of Zone Surfaces, Number of SubSurfaces
 Zone Summary,12,155,55
! <Zone Information>,Zone Name,North Axis {deg},Origin X-Coordinate {m},Origin Y-Coordinate {m},Origin Z-Coordinate {m},Centroid X-Coordinate {m},Centroid Y-Coordinate {m},Centroid Z-Coordinate {m},Type,Zone Multiplier,Zone List Multiplier,Minimum X {m},Maximum X {m},Minimum Y {m},Maximum Y {m},Minimum Z {m},Maximum Z {m},Ceiling Height {m},Volume {m3},Zone Inside Convection Algorithm {Simple-Detailed-CeilingDiffuser-TrombeWall},Zone Outside Convection Algorithm {Simple-Detailed-Tarp-MoWitt-DOE-2-BLAST}, Floor Area {m2},Exterior Gross Wall Area {m2},Exterior Net Wall Area {m2},Exterior Window Area {m2}, Number of Surfaces, Number of SubSurfaces, Number of Shading SubSurfaces,  Part of Total Building Area
 Zone Information, LOBBY_0,0.0,0.00,0.00,0.00,-7.90,0.38,1.50,1,1,1,-14.88,-4.17,-5.69,6.84,0.00,3.00,3.00,10.00,TARP,DOE-2,127.04,141.33,100.55,40.78,10,5,0,Yes
 Zone Information, CONFERENCE_0,0.0,0.00,0.00,0.00,9.86,1.25,1.50,1,1,1,5.63,14.09,-3.43,5.94,0.00,3.00,3.00,10.00,TARP,DOE-2,77.44,105.75,73.92,31.83,6,4,0,Yes
 Zone Information, BREAK_ROOM_0,0.0,0.00,0.00,0.00,-13.28,-0.99,1.50,1,1,1,-16.26,-10.31,-6.42,4.44,0.00,3.00,3.00,10.00,TARP,DOE-2,62.99,99.66,69.67,29.99,6,4,0,Yes
 Zone Information, MECHANICAL_0,0.0,0.00,0.00,0.00,-8.78,-0.92,1.50,1,1,1,-10.96,-6.59,-4.68,2.83,0.00,3.00,3.00,10.00,TARP,DOE-2,31.61,70.05,48.97,21.08,6,4,0,Yes
 Zone Information, LOBBY_1,0.0,0.00,0.00,0.00,6.78,-2.88E-002,4.50,1,1,1,2.39,14.09,-7.06,6.97,3.00,6.00,3.00,10.00,TARP,DOE-2,139.98,166.95,116.70,50.25,10,8,0,Yes
 Zone Information, CONFERENCE_1,0.0,0.00,0.00,0.00,-11.53,-0.91,4.50,1,1,1,-16.41,-6.64,-6.08,4.26,3.00,6.00,3.00,10.00,TARP,DOE-2,98.94,119.41,83.47,35.94,6,4,0,Yes
 Zone Information, BREAK_ROOM_1,0.0,0.00,0.00,0.00,-8.74,3.92,4.50,1,1,1,-10.39,-7.08,0.72,7.11,3.00,6.00,3.00,10.00,TARP,DOE-2,20.19,56.99,39.84,17.15,6,4,0,Yes
 Zone Information, MECHANICAL_1,0.0,0.00,0.00,0.00,-10.97,-1.81,4.50,1,1,1,-13.69,-8.25,-6.53,2.90,3.00,6.00,3.00,10.00,TARP,DOE-2,49.77,87.99,61.51,26.48,6,4,0,Yes
 Zone Information, LOBBY_2,0.0,0.00,0.00,0.00,6.53,0.20,7.50,1,1,1,3.74,11.03,-5.57,6.14,6.00,9.00,3.00,10.00,TARP,DOE-2,74.66,118.99,86.90,32.09,10,4,0,Yes
 Zone Information, CONFERENCE_2,0.0,0.00,0.00,0.00,-11.37,0.98,7.50,1,1,1,-14.91,-7.83,-4.91,6.87,6.00,9.00,3.00,10.00,TARP,DOE-2,81.55,111.98,78.28,33.70,6,4,0,Yes
 Zone Information, BREAK_ROOM_2,0.0,0.00,0.00,0.00,-12.56,1.25,7.50,1,1,1,-16.02,-9.09,-4.24,6.74,6.00,9.00,3.00,10.00,TARP,DOE-2,74.27,106.23,74.26,31.97,6,4,0,Yes
 Zone Information, MECHANICAL_2,0.0,0.00,0.00,0.00,-5.75,-0.23,7.50,1,1,1,-10.64,-2.25,-6.25,5.57,6.00,9.00,3.00,10.00,TARP,DOE-2,74.30,135.21,96.56,38.65,10,6,0,Yes
! <Zone Internal Gains Nominal>,Zone Name, Floor Area {m2},# Occupants,Area per Occupant {m2/person},Occupant per Area {person/m2},Interior Lighting {W/m2},Electric Load {W/m2},Gas Load {W/m2},Other Load {W/m2},Hot Water Eq {W/m2},Steam Equipment {W/m2},Sum Loads per Area {W/m2},Outdoor Controlled Baseboard Heat
 Zone Internal Gains Nominal, LOBBY_0,127.04,6.0,21.173,4.723E-002,12.900,3.200,0.000,0.000,0.000,0.000,16.100,No
 Zone Internal Gains Nominal, CONFERENCE_0,77.44,15.0,5.163,0.194,10.800,8.100,0.000,0.000,0.000,0.000,18.900,No
 Zone Internal Gains Nominal, BREAK_ROOM_0,62.99,6.0,10.498,9.526E-002,8.100,15.000,0.000,0.000,0.000,0.000,23.100,No
 Zone Internal Gains Nominal, MECHANICAL_0,31.61,1.0,31.611,3.163E-002,5.400,0.000,0.000,0.000,0.000,0.000,5.400,No
 Zone Internal Gains Nominal, LOBBY_1,139.98,6.0,23.331,4.286E-002,12.900,3.200,0.000,0.000,0.000,0.000,16.100,No
 Zone Internal Gains Nominal, CONFERENCE_1,98.94,19.0,5.208,0.192,10.800,8.100,0.000,0.000,0.000,0.000,18.900,No
 Zone Internal Gains Nominal, BREAK_ROOM_1,20.19,2.0,10.096,9.905E-002,8.100,15.000,0.000,0.000,0.000,0.000,23.100,No
 Zone Internal Gains Nominal, MECHANICAL_1,49.77,1.0,49.774,2.009E-002,5.400,0.000,0.000,0.000,0.000,0.000,5.400,No
 Zone Internal Gains Nominal, LOBBY_2,74.66,3.0,24.887,4.018E-002,12.900,3.200,0.000,0.000,0.000,0.000,16.100,No
 Zone Internal Gains Nominal, CONFERENCE_2,81.55,16.0,5.097,0.196,10.800,8.100,0.000,0.000,0.000,0.000,18.900,No
 Zone Internal Gains Nominal, BREAK_ROOM_2,74.27,7.0,10.610,9.425E-002,8.100,15.000,0.000,0.000,0.000,0.000,23.100,No
 Zone Internal Gains Nominal, MECHANICAL_2,74.30,1.0,74.304,1.346E-002,5.400,0.000,0.000,0.000,0.000,0.000,5.400,No
! <People Internal Gains Nominal>,Name,Schedule Name,Zone Name,Zone Floor Area {m2},# Zone Occupants,Number of People {},People/Floor Area {person/m2},Floor Area per person {m2/person},Fraction Radiant,Fraction Convected,Sensible Fraction Calculation,Activity level,ASHRAE 55 Warnings,Carbon Dioxide Generation Rate,Minimum Number of People for All Day Types,Maximum Number of People for All Day Types,Minimum Number of People for Weekdays, Maximum Number of People for Weekdays, Minimum Number of People for Weekends/Holidays, Maximum Number of People for Weekends /Holidays,Minimum Number of People for Summer Design Days, Maximum Number of People for Summer Design Days,Minimum Number of People for Winter Design Days, Maximum Number of People for Winter Design Days
 People Internal Gains Nominal, LOBBY_0_PEOPLE,LOBBY_OCCUPANCY,LOBBY_0,127.04,6.0,6.0,4.723E-002,21.173,0.300,0.700,0.100,LOBBY_ACTIVITY,No,3.8200E-008,1.2,1.2,1.2,1.2,1.2,1.2,1.2,1.2,1.2,1.2,
 People Internal Gains Nominal, CONFERENCE_0_PEOPLE,CONFERENCE_OCCUPANCY,CONFERENCE_0,77.44,15.0,15.0,0.194,5.163,0.300,0.700,0.100,CONFERENCE_ACTIVITY,No,3.8200E-008,0.0,15.0,0.0,15.0,0.0,1.5,0.0,0.0,0.0,0.0,
 People Internal Gains Nominal, BREAK_ROOM_0_PEOPLE,BREAK_ROOM_OCCUPANCY,BREAK_ROOM_0,62.99,6.0,6.0,9.526E-002,10.498,0.300,0.700,0.100,BREAK_ROOM_ACTIVITY,No,3.8200E-008,1.2,1.2,1.2,1.2,1.2,1.2,1.2,1.2,1.2,1.2,
 People Internal Gains Nominal, MECHANICAL_0_PEOPLE,MECHANICAL_OCCUPANCY,MECHANICAL_0,31.61,1.0,1.0,3.163E-002,31.611,0.300,0.700,0.100,MECHANICAL_ACTIVITY,No,3.8200E-008,0.2,0.2,0.2,0.2,0.2,0.2,0.2,0.2,0.2,0.2,
 People Internal Gains Nominal, LOBBY_1_PEOPLE,LOBBY_OCCUPANCY,LOBBY_1,139.98,6.0,6.0,4.286E-002,23.331,0.300,0.700,0.100,LOBBY_ACTIVITY,No,3.8200E-008,1.2,1.2,1.2,1.2,1.2,1.2,1.2,1.2,1.2,1.2,
 People Internal Gains Nominal, CONFERENCE_1_PEOPLE,CONFERENCE_OCCUPANCY,CONFERENCE_1,98.94,19.0,19.0,0.192,5.208,0.300,0.700,0.100,CONFERENCE_ACTIVITY,No,3.8200E-008,0.0,19.0,0.0,19.0,0.0,1.9,0.0,0.0,0.0,0.0,
 People Internal Gains Nominal, BREAK_ROOM_1_PEOPLE,BREAK_ROOM_OCCUPANCY,BREAK_ROOM_1,20.19,2.0,2.0,9.905E-002,10.096,0.300,0.700,0.100,BREAK_ROOM_ACTIVITY,No,3.8200E-008,0.4,0.4,0.4,0.4,0.4,0.4,0.4,0.4,0.4,0.4,
 People Internal Gains Nominal, MECHANICAL_1_PEOPLE,MECHANICAL_OCCUPANCY,MECHANICAL_1,49.77,1.0,1.0,2.009E-002,49.774,0.300,0.700,0.100,MECHANICAL_ACTIVITY,No,3.8200E-008,0.2,0.2,0.2,0.2,0.2,0.2,0.2,0.2,0.2,0.2,
 People Internal Gains Nominal, LOBBY_2_PEOPLE,LOBBY_OCCUPANCY,LOBBY_2,74.66,3.0,3.0,4.018E-002,24.887,0.300,0.700,0.100,LOBBY_ACTIVITY,No,3.8200E-008,0.6,0.6,0.6,0.6,0.6,0.6,0.6,0.6,0.6,0.6,
 People Internal Gains Nominal, CONFERENCE_2_PEOPLE,CONFERENCE_OCCUPANCY,CONFERENCE_2,81.55,16.0,16.0,0.196,5.097,0.300,0.700,0.100,CONFERENCE_ACTIVITY,No,3.8200E-008,0.0,16.0,0.0,16.0,0.0,1.6,0.0,0.0,0.0,0.0,
 People Internal Gains Nominal, BREAK_ROOM_2_PEOPLE,BREAK_ROOM_OCCUPANCY,BREAK_ROOM_2,74.27,7.0,7.0,9.425E-002,10.610,0.300,0.700,0.100,BREAK_ROOM_ACTIVITY,No,3.8200E-008,1.4,1.4,1.4,1.4,1.4,1.4,1.4,1.4,1.4,1.4,
 People Internal Gains Nominal, MECHANICAL_2_PEOPLE,MECHANICAL_OCCUPANCY,MECHANICAL_2,74.30,1.0,1.0,1.346E-002,74.304,0.300,0.700,0.100,MECHANICAL_ACTIVITY,No,3.8200E-008,0.2,0.2,0.2,0.2,0.2,0.2,0.2,0.2,0.2,0.2,
! <Lights Internal Gains Nominal>,Name,Schedule Name,Zone Name,Zone Floor Area {m2},# Zone Occupants,Lighting Level {W},Lights/Floor Area {W/m2},Lights per person {W/person},Fraction Return Air,Fraction Radiant,Fraction Short Wave,Fraction Convected,Fraction Replaceable,End-Use, Minimum Lighting Level for All Day Types {W},Maximum Lighting Level for All Day Types {W},Minimum Lighting Level for Weekdays {W}, Maximum Lighting Level for Weekdays {W},Minimum Lighting Level for Weekends/Holidays {W}, Maximum Lighting Level for Weekends /Holidays {W},Minimum Lighting Level for Summer Design Days {W}, Maximum Lighting Level for Summer Design Days {W},Minimum Lighting Level for Winter Design Days {W}, Maximum Lighting Level for Winter Design Days {W}
 Lights Internal Gains Nominal, LOBBY_0_LIGHTS,LOBBY_LIGHTING,LOBBY_0,127.04,6.0,1638.797,12.900,273.133,0.000,0.300,0.200,0.500,1.000,General,0.000,1638.797,163.880,1638.8,0.000,327.759,0.000,0.000,0.000,0.000
 Lights Internal Gains Nominal, CONFERENCE_0_LIGHTS,CONFERENCE_LIGHTING,CONFERENCE_0,77.44,15.0,836.389,10.800,55.759,0.000,0.300,0.200,0.500,1.000,General,0.000,836.389,83.639,836.4,0.000,167.278,0.000,0.000,0.000,0.000
 Lights Internal Gains Nominal, BREAK_ROOM_0_LIGHTS,BREAK_ROOM_LIGHTING,BREAK_ROOM_0,62.99,6.0,510.194,8.100,85.032,0.000,0.300,0.200,0.500,1.000,General,0.000,510.194,51.019,510.2,0.000,102.039,0.000,0.000,0.000,0.000
 Lights Internal Gains Nominal, MECHANICAL_0_LIGHTS,MECHANICAL_LIGHTING,MECHANICAL_0,31.61,1.0,170.701,5.400,170.701,0.000,0.300,0.200,0.500,1.000,General,0.000,170.701,17.070,170.7,0.000,34.140,0.000,0.000,0.000,0.000
 Lights Internal Gains Nominal, LOBBY_1_LIGHTS,LOBBY_LIGHTING,LOBBY_1,139.98,6.0,1805.801,12.900,300.967,0.000,0.300,0.200,0.500,1.000,General,0.000,1805.801,180.580,1805.8,0.000,361.160,0.000,0.000,0.000,0.000
 Lights Internal Gains Nominal, CONFERENCE_1_LIGHTS,CONFERENCE_LIGHTING,CONFERENCE_1,98.94,19.0,1068.598,10.800,56.242,0.000,0.300,0.200,0.500,1.000,General,0.000,1068.598,106.860,1068.6,0.000,213.720,0.000,0.000,0.000,0.000
 Lights Internal Gains Nominal, BREAK_ROOM_1_LIGHTS,BREAK_ROOM_LIGHTING,BREAK_ROOM_1,20.19,2.0,163.550,8.100,81.775,0.000,0.300,0.200,0.500,1.000,General,0.000,163.550,16.355,163.5,0.000,32.710,0.000,0.000,0.000,0.000
 Lights Internal Gains Nominal, MECHANICAL_1_LIGHTS,MECHANICAL_LIGHTING,MECHANICAL_1,49.77,1.0,268.779,5.400,268.779,0.000,0.300,0.200,0.500,1.000,General,0.000,268.779,26.878,268.8,0.000,53.756,0.000,0.000,0.000,0.000
 Lights Internal Gains Nominal, LOBBY_2_LIGHTS,LOBBY_LIGHTING,LOBBY_2,74.66,3.0,963.114,12.900,321.038,0.000,0.300,0.200,0.500,1.000,General,0.000,963.114,96.311,963.1,0.000,192.623,0.000,0.000,0.000,0.000
 Lights Internal Gains Nominal, CONFERENCE_2_LIGHTS,CONFERENCE_LIGHTING,CONFERENCE_2,81.55,16.0,880.739,10.800,55.046,0.000,0.300,0.200,0.500,1.000,General,0.000,880.739,88.074,880.7,0.000,176.148,0.000,0.000,0.000,0.000
 Lights Internal Gains Nominal, BREAK_ROOM_2_LIGHTS,BREAK_ROOM_LIGHTING,BREAK_ROOM_2,74.27,7.0,601.563,8.100,85.938,0.000,0.300,0.200,0.500,1.000,General,0.000,601.563,60.156,601.6,0.000,120.313,0.000,0.000,0.000,0.000
 Lights Internal Gains Nominal, MECHANICAL_2_LIGHTS,MECHANICAL_LIGHTING,MECHANICAL_2,74.30,1.0,401.243,5.400,401.243,0.000,0.300,0.200,0.500,1.000,General,0.000,401.243,40.124,401.2,0.000,80.249,0.000,0.000,0.000,0.000
! <ElectricEquipment Internal Gains Nominal>,Name,Schedule Name,Zone Name,Zone Floor Area {m2},# Zone Occupants,Equipment Level {W},Equipment/Floor Area {W/m2},Equipment per person {W/person},Fraction Latent,Fraction Radiant,Fraction Lost,Fraction Convected,End-Use SubCategory,Minimum Equipment Level for All Day Types {W},Maximum Equipment Level for All Day Types {W},Minimum Equipment Level for Weekdays {W}, Maximum Equipment Level for Weekdays {W},Minimum Equipment Level for Weekends/Holidays {W}, Maximum Equipment Level for Weekends /Holidays {W},Minimum Equipment Level for Summer Design Days {W}, Maximum Equipment Level for Summer Design Days {W},Minimum Equipment Level for Winter Design Days {W}, Maximum Equipment Level for Winter Design Days {W}
 ElectricEquipment Internal Gains Nominal, LOBBY_0_EQUIPMENT,LOBBY_EQUIPMENT,LOBBY_0,127.04,6.0,406.523,3.200,67.754,0.100,0.200,0.000,0.700,General,0.000,325.219,121.957,325.219,0.000,121.957,0.000,0.000,0.000,0.000
 ElectricEquipment Internal Gains Nominal, CONFERENCE_0_EQUIPMENT,CONFERENCE_EQUIPMENT,CONFERENCE_0,77.44,15.0,627.292,8.100,41.819,0.100,0.200,0.000,0.700,General,0.000,501.833,188.188,501.833,0.000,188.188,0.000,0.000,0.000,0.000
 ElectricEquipment Internal Gains Nominal, BREAK_ROOM_0_EQUIPMENT,BREAK_ROOM_EQUIPMENT,BREAK_ROOM_0,62.99,6.0,944.805,15.000,157.467,0.100,0.200,0.000,0.700,General,0.000,755.844,283.441,755.844,0.000,283.441,0.000,0.000,0.000,0.000
 ElectricEquipment Internal Gains Nominal, MECHANICAL_0_EQUIPMENT,MECHANICAL_EQUIPMENT,MECHANICAL_0,31.61,1.0,0.000,0.000,0.000,0.100,0.200,0.000,0.700,General,0.000,0.000,0.000,0.000,0.000,0.000,0.000,0.000,0.000,0.000
 ElectricEquipment Internal Gains Nominal, LOBBY_1_EQUIPMENT,LOBBY_EQUIPMENT,LOBBY_1,139.98,6.0,447.951,3.200,74.658,0.100,0.200,0.000,0.700,General,0.000,358.361,134.385,358.361,0.000,134.385,0.000,0.000,0.000,0.000
 ElectricEquipment Internal Gains Nominal, CONFERENCE_1_EQUIPMENT,CONFERENCE_EQUIPMENT,CONFERENCE_1,98.94,19.0,801.449,8.100,42.182,0.100,0.200,0.000,0.700,General,0.000,641.159,240.435,641.159,0.000,240.435,0.000,0.000,0.000,0.000
 ElectricEquipment Internal Gains Nominal, BREAK_ROOM_1_EQUIPMENT,BREAK_ROOM_EQUIPMENT,BREAK_ROOM_1,20.19,2.0,302.870,15.000,151.435,0.100,0.200,0.000,0.700,General,0.000,242.296,90.861,242.296,0.000,90.861,0.000,0.000,0.000,0.000
 ElectricEquipment Internal Gains Nominal, MECHANICAL_1_EQUIPMENT,MECHANICAL_EQUIPMENT,MECHANICAL_1,49.77,1.0,0.000,0.000,0.000,0.100,0.200,0.000,0.700,General,0.000,0.000,0.000,0.000,0.000,0.000,0.000,0.000,0.000,0.000
 ElectricEquipment Internal Gains Nominal, LOBBY_2_EQUIPMENT,LOBBY_EQUIPMENT,LOBBY_2,74.66,3.0,238.912,3.200,79.637,0.100,0.200,0.000,0.700,General,0.000,191.130,71.674,191.130,0.000,71.674,0.000,0.000,0.000,0.000
 ElectricEquipment Internal Gains Nominal, CONFERENCE_2_EQUIPMENT,CONFERENCE_EQUIPMENT,CONFERENCE_2,81.55,16.0,660.555,8.100,41.285,0.100,0.200,0.000,0.700,General,0.000,528.444,198.166,528.444,0.000,198.166,0.000,0.000,0.000,0.000
 ElectricEquipment Internal Gains Nominal, BREAK_ROOM_2_EQUIPMENT,BREAK_ROOM_EQUIPMENT,BREAK_ROOM_2,74.27,7.0,1114.006,15.000,159.144,0.100,0.200,0.000,0.700,General,0.000,891.205,334.202,891.205,0.000,334.202,0.000,0.000,0.000,0.000
 ElectricEquipment Internal Gains Nominal, MECHANICAL_2_EQUIPMENT,MECHANICAL_EQUIPMENT,MECHANICAL_2,74.30,1.0,0.000,0.000,0.000,0.100,0.200,0.000,0.700,General,0.000,0.000,0.000,0.000,0.000,0.000,0.000,0.000,0.000,0.000
! <Enclosure/Window Adjacency Daylighting Counts>, Enclosure Name, Number of Exterior Windows, Number of Exterior Windows in Adjacent Enclosures
Enclosure/Window Adjacency Daylighting Counts, LOBBY_0,5,0
Enclosure/Window Adjacency Daylighting Counts, CONFERENCE_0,4,0
Enclosure/Window Adjacency Daylighting Counts, BREAK_ROOM_0,4,0
Enclosure/Window Adjacency Daylighting Counts, LOBBY_1,8,0
Enclosure/Window Adjacency Daylighting Counts, CONFERENCE_1,4,0
Enclosure/Window Adjacency Daylighting Counts, BREAK_ROOM_1,4,0
Enclosure/Window Adjacency Daylighting Counts, LOBBY_2,4,0
Enclosure/Window Adjacency Daylighting Counts, CONFERENCE_2,4,0
Enclosure/Window Adjacency Daylighting Counts, BREAK_ROOM_2,4,0
! <Enclosure/Window Adjacency Daylighting Matrix>, Enclosure Name, Number of Adjacent Enclosures with Windows,Adjacent Enclosure Names - 1st 100 (max)
Enclosure/Window Adjacency Daylighting Matrix, LOBBY_0,0
Enclosure/Window Adjacency Daylighting Matrix, CONFERENCE_0,0
Enclosure/Window Adjacency Daylighting Matrix, BREAK_ROOM_0,0
Enclosure/Window Adjacency Daylighting Matrix, LOBBY_1,0
Enclosure/Window Adjacency Daylighting Matrix, CONFERENCE_1,0
Enclosure/Window Adjacency Daylighting Matrix, BREAK_ROOM_1,0
Enclosure/Window Adjacency Daylighting Matrix, LOBBY_2,0
Enclosure/Window Adjacency Daylighting Matrix, CONFERENCE_2,0
Enclosure/Window Adjacency Daylighting Matrix, BREAK_ROOM_2,0
! <ZoneInfiltration Airflow Stats Nominal>,Name,Schedule Name,Zone Name, Zone Floor Area {m2}, # Zone Occupants,Design Volume Flow Rate {m3/s},Volume Flow Rate/Floor Area {m3/s-m2},Volume Flow Rate/Exterior Surface Area {m3/s-m2},ACH - Air Changes per Hour,Equation A - Constant Term Coefficient {},Equation B - Temperature Term Coefficient {1/C},Equation C - Velocity Term Coefficient {s/m}, Equation D - Velocity Squared Term Coefficient {s2/m2}
 ZoneInfiltration Airflow Stats Nominal, LOBBY_0_INFILTRATION,LOBBY_0_INFILTRATION_SCHEDULE,LOBBY_0,127.04,6.0,3.176E-002,2.500E-004,8.032E-005,11.434,1.000,0.960,0.120,0.000
 ZoneInfiltration Airflow Stats Nominal, CONFERENCE_0_INFILTRATION,CONFERENCE_0_INFILTRATION_SCHEDULE,CONFERENCE_0,77.44,15.0,1.936E-002,2.500E-004,7.428E-005,6.970,1.000,0.960,0.120,0.000
 ZoneInfiltration Airflow Stats Nominal, BREAK_ROOM_0_INFILTRATION,BREAK_ROOM_0_INFILTRATION_SCHEDULE,BREAK_ROOM_0,62.99,6.0,1.575E-002,2.500E-004,6.979E-005,5.669,1.000,0.960,0.120,0.000
 ZoneInfiltration Airflow Stats Nominal, MECHANICAL_0_INFILTRATION,MECHANICAL_0_INFILTRATION_SCHEDULE,MECHANICAL_0,31.61,1.0,7.903E-003,2.500E-004,5.930E-005,2.845,1.000,0.960,0.120,0.000
 ZoneInfiltration Airflow Stats Nominal, LOBBY_1_INFILTRATION,LOBBY_1_INFILTRATION_SCHEDULE,LOBBY_1,139.98,6.0,3.500E-002,2.500E-004,7.830E-005,12.599,1.000,0.960,0.120,0.000
 ZoneInfiltration Airflow Stats Nominal, CONFERENCE_1_INFILTRATION,CONFERENCE_1_INFILTRATION_SCHEDULE,CONFERENCE_1,98.94,19.0,2.474E-002,2.500E-004,7.796E-005,8.905,1.000,0.960,0.120,0.000
 ZoneInfiltration Airflow Stats Nominal, BREAK_ROOM_1_INFILTRATION,BREAK_ROOM_1_INFILTRATION_SCHEDULE,BREAK_ROOM_1,20.19,2.0,5.048E-003,2.500E-004,5.184E-005,1.817,1.000,0.960,0.120,0.000
 ZoneInfiltration Airflow Stats Nominal, MECHANICAL_1_INFILTRATION,MECHANICAL_1_INFILTRATION_SCHEDULE,MECHANICAL_1,49.77,1.0,1.244E-002,2.500E-004,6.635E-005,4.479,1.000,0.960,0.120,0.000
 ZoneInfiltration Airflow Stats Nominal, LOBBY_2_INFILTRATION,LOBBY_2_INFILTRATION_SCHEDULE,LOBBY_2,74.66,3.0,1.867E-002,2.500E-004,6.956E-005,6.719,1.000,0.960,0.120,0.000
 ZoneInfiltration Airflow Stats Nominal, CONFERENCE_2_INFILTRATION,CONFERENCE_2_INFILTRATION_SCHEDULE,CONFERENCE_2,81.55,16.0,2.039E-002,2.500E-004,7.411E-005,7.339,1.000,0.960,0.120,0.000
 ZoneInfiltration Airflow Stats Nominal, BREAK_ROOM_2_INFILTRATION,BREAK_ROOM_2_INFILTRATION_SCHEDULE,BREAK_ROOM_2,74.27,7.0,1.857E-002,2.500E-004,7.288E-005,6.684,1.000,0.960,0.120,0.000
 ZoneInfiltration Airflow Stats Nominal, MECHANICAL_2_INFILTRATION,MECHANICAL_2_INFILTRATION_SCHEDULE,MECHANICAL_2,74.30,1.0,1.858E-002,2.500E-004,6.545E-005,6.687,1.000,0.960,0.120,0.000
! <AirFlow Model>, Simple
 AirFlow Model, Simple
! <RoomAir Model>, Zone Name, Mixing/Mundt/UCSDDV/UCSDCV/UCSDUFI/UCSDUFE/User Defined
RoomAir Model,LOBBY_0,Mixing/Well-Stirred
RoomAir Model,CONFERENCE_0,Mixing/Well-Stirred
RoomAir Model,BREAK_ROOM_0,Mixing/Well-Stirred
RoomAir Model,MECHANICAL_0,Mixing/Well-Stirred
RoomAir Model,LOBBY_1,Mixing/Well-Stirred
RoomAir Model,CONFERENCE_1,Mixing/Well-Stirred
RoomAir Model,BREAK_ROOM_1,Mixing/Well-Stirred
RoomAir Model,MECHANICAL_1,Mixing/Well-Stirred
RoomAir Model,LOBBY_2,Mixing/Well-Stirred
RoomAir Model,CONFERENCE_2,Mixing/Well-Stirred
RoomAir Model,BREAK_ROOM_2,Mixing/Well-Stirred
RoomAir Model,MECHANICAL_2,Mixing/Well-Stirred
! <AirflowNetwork Model:Control>, No Multizone or Distribution/Multizone with Distribution/Multizone without Distribution/Multizone with Distribution only during Fan Operation
AirflowNetwork Model:Control,NoMultizoneOrDistribution
! <Zone Volume Capacitance Multiplier>, Sensible Heat Capacity Multiplier, Moisture Capacity Multiplier, Carbon Dioxide Capacity Multiplier, Generic Contaminant Capacity Multiplier
Zone Volume Capacitance Multiplier,   1.000 ,   1.000,   1.000,   1.000
! <Component Sizing Information>, Component Type, Component Name, Input Field Description, Value
 Component Sizing Information, AirTerminal:SingleDuct:VAV:Reheat, LOBBY_0_Z1_VAVTERMINAL, User-Specified Maximum Air Flow Rate [m3/s], 0.63519
 Component Sizing Information, AirTerminal:SingleDuct:VAV:Reheat, LOBBY_0_Z1_VAVTERMINAL, Design Size Constant Minimum Air Flow Fraction, 0.20000
 Component Sizing Information, AirTerminal:SingleDuct:VAV:Reheat, LOBBY_0_Z1_VAVTERMINAL, User-Specified Constant Minimum Air Flow Fraction, 0.20000
 Component Sizing Information, AirTerminal:SingleDuct:VAV:Reheat, LOBBY_0_Z1_VAVTERMINAL, Design Size Minimum Air Flow Rate [m3/s], 0.12704
 Component Sizing Information, AirTerminal:SingleDuct:VAV:Reheat, LOBBY_0_Z1_VAVTERMINAL, Design Size Maximum Flow per Zone Floor Area during Reheat [m3/s-m2], 9.99998E-004
 Component Sizing Information, AirTerminal:SingleDuct:VAV:Reheat, LOBBY_0_Z1_VAVTERMINAL, Design Size Maximum Flow Fraction during Reheat [], 0.20000
 Component Sizing Information, AirTerminal:SingleDuct:VAV:Reheat, LOBBY_0_Z1_VAVTERMINAL, User-Specified Maximum Reheat Water Flow Rate [m3/s], 10.16307
 Component Sizing Information, Coil:Heating:Electric, LOBBY_0_Z1_REHEATCOIL, User-Specified Nominal Capacity [W], 3048.91989
 Component Sizing Information, AirTerminal:SingleDuct:VAV:Reheat, CONFERENCE_0_Z2_VAVTERMINAL, User-Specified Maximum Air Flow Rate [m3/s], 0.38722
 Component Sizing Information, AirTerminal:SingleDuct:VAV:Reheat, CONFERENCE_0_Z2_VAVTERMINAL, Design Size Constant Minimum Air Flow Fraction, 0.20000
 Component Sizing Information, AirTerminal:SingleDuct:VAV:Reheat, CONFERENCE_0_Z2_VAVTERMINAL, User-Specified Constant Minimum Air Flow Fraction, 0.20000
 Component Sizing Information, AirTerminal:SingleDuct:VAV:Reheat, CONFERENCE_0_Z2_VAVTERMINAL, Design Size Minimum Air Flow Rate [m3/s], 7.74434E-002
 Component Sizing Information, AirTerminal:SingleDuct:VAV:Reheat, CONFERENCE_0_Z2_VAVTERMINAL, Design Size Maximum Flow per Zone Floor Area during Reheat [m3/s-m2], 1.00000E-003
 Component Sizing Information, AirTerminal:SingleDuct:VAV:Reheat, CONFERENCE_0_Z2_VAVTERMINAL, Design Size Maximum Flow Fraction during Reheat [], 0.20000
 Component Sizing Information, AirTerminal:SingleDuct:VAV:Reheat, CONFERENCE_0_Z2_VAVTERMINAL, User-Specified Maximum Reheat Water Flow Rate [m3/s], 6.19547
 Component Sizing Information, Coil:Heating:Electric, CONFERENCE_0_Z2_REHEATCOIL, User-Specified Nominal Capacity [W], 1858.64169
 Component Sizing Information, AirTerminal:SingleDuct:VAV:Reheat, BREAK_ROOM_0_Z3_VAVTERMINAL, User-Specified Maximum Air Flow Rate [m3/s], 0.31493
 Component Sizing Information, AirTerminal:SingleDuct:VAV:Reheat, BREAK_ROOM_0_Z3_VAVTERMINAL, Design Size Constant Minimum Air Flow Fraction, 0.20000
 Component Sizing Information, AirTerminal:SingleDuct:VAV:Reheat, BREAK_ROOM_0_Z3_VAVTERMINAL, User-Specified Constant Minimum Air Flow Fraction, 0.20000
 Component Sizing Information, AirTerminal:SingleDuct:VAV:Reheat, BREAK_ROOM_0_Z3_VAVTERMINAL, Design Size Minimum Air Flow Rate [m3/s], 6.29870E-002
 Component Sizing Information, AirTerminal:SingleDuct:VAV:Reheat, BREAK_ROOM_0_Z3_VAVTERMINAL, Design Size Maximum Flow per Zone Floor Area during Reheat [m3/s-m2], 1.00000E-003
 Component Sizing Information, AirTerminal:SingleDuct:VAV:Reheat, BREAK_ROOM_0_Z3_VAVTERMINAL, Design Size Maximum Flow Fraction during Reheat [], 0.20000
 Component Sizing Information, AirTerminal:SingleDuct:VAV:Reheat, BREAK_ROOM_0_Z3_VAVTERMINAL, User-Specified Maximum Reheat Water Flow Rate [m3/s], 5.03896
 Component Sizing Information, Coil:Heating:Electric, BREAK_ROOM_0_Z3_REHEATCOIL, User-Specified Nominal Capacity [W], 1511.68730
 Component Sizing Information, AirTerminal:SingleDuct:VAV:Reheat, MECHANICAL_0_Z4_VAVTERMINAL, User-Specified Maximum Air Flow Rate [m3/s], 0.15806
 Component Sizing Information, AirTerminal:SingleDuct:VAV:Reheat, MECHANICAL_0_Z4_VAVTERMINAL, Design Size Constant Minimum Air Flow Fraction, 0.20000
 Component Sizing Information, AirTerminal:SingleDuct:VAV:Reheat, MECHANICAL_0_Z4_VAVTERMINAL, User-Specified Constant Minimum Air Flow Fraction, 0.20000
 Component Sizing Information, AirTerminal:SingleDuct:VAV:Reheat, MECHANICAL_0_Z4_VAVTERMINAL, Design Size Minimum Air Flow Rate [m3/s], 3.16113E-002
 Component Sizing Information, AirTerminal:SingleDuct:VAV:Reheat, MECHANICAL_0_Z4_VAVTERMINAL, Design Size Maximum Flow per Zone Floor Area during Reheat [m3/s-m2], 1.00000E-003
 Component Sizing Information, AirTerminal:SingleDuct:VAV:Reheat, MECHANICAL_0_Z4_VAVTERMINAL, Design Size Maximum Flow Fraction during Reheat [], 0.20000
 Component Sizing Information, AirTerminal:SingleDuct:VAV:Reheat, MECHANICAL_0_Z4_VAVTERMINAL, User-Specified Maximum Reheat Water Flow Rate [m3/s], 2.52890
 Component Sizing Information, Coil:Heating:Electric, MECHANICAL_0_Z4_REHEATCOIL, User-Specified Nominal Capacity [W], 758.67009
 Component Sizing Information, AirTerminal:SingleDuct:VAV:Reheat, LOBBY_1_Z5_VAVTERMINAL, User-Specified Maximum Air Flow Rate [m3/s], 0.69993
 Component Sizing Information, AirTerminal:SingleDuct:VAV:Reheat, LOBBY_1_Z5_VAVTERMINAL, Design Size Constant Minimum Air Flow Fraction, 0.20000
 Component Sizing Information, AirTerminal:SingleDuct:VAV:Reheat, LOBBY_1_Z5_VAVTERMINAL, User-Specified Constant Minimum Air Flow Fraction, 0.20000
 Component Sizing Information, AirTerminal:SingleDuct:VAV:Reheat, LOBBY_1_Z5_VAVTERMINAL, Design Size Minimum Air Flow Rate [m3/s], 0.13999
 Component Sizing Information, AirTerminal:SingleDuct:VAV:Reheat, LOBBY_1_Z5_VAVTERMINAL, Design Size Maximum Flow per Zone Floor Area during Reheat [m3/s-m2], 1.00000E-003
 Component Sizing Information, AirTerminal:SingleDuct:VAV:Reheat, LOBBY_1_Z5_VAVTERMINAL, Design Size Maximum Flow Fraction during Reheat [], 0.20000
 Component Sizing Information, AirTerminal:SingleDuct:VAV:Reheat, LOBBY_1_Z5_VAVTERMINAL, User-Specified Maximum Reheat Water Flow Rate [m3/s], 11.19882
 Component Sizing Information, Coil:Heating:Electric, LOBBY_1_Z5_REHEATCOIL, User-Specified Nominal Capacity [W], 3359.64690
 Component Sizing Information, AirTerminal:SingleDuct:VAV:Reheat, CONFERENCE_1_Z6_VAVTERMINAL, User-Specified Maximum Air Flow Rate [m3/s], 0.49473
 Component Sizing Information, AirTerminal:SingleDuct:VAV:Reheat, CONFERENCE_1_Z6_VAVTERMINAL, Design Size Constant Minimum Air Flow Fraction, 0.20000
 Component Sizing Information, AirTerminal:SingleDuct:VAV:Reheat, CONFERENCE_1_Z6_VAVTERMINAL, User-Specified Constant Minimum Air Flow Fraction, 0.20000
 Component Sizing Information, AirTerminal:SingleDuct:VAV:Reheat, CONFERENCE_1_Z6_VAVTERMINAL, Design Size Minimum Air Flow Rate [m3/s], 9.89452E-002
 Component Sizing Information, AirTerminal:SingleDuct:VAV:Reheat, CONFERENCE_1_Z6_VAVTERMINAL, Design Size Maximum Flow per Zone Floor Area during Reheat [m3/s-m2], 1.00001E-003
 Component Sizing Information, AirTerminal:SingleDuct:VAV:Reheat, CONFERENCE_1_Z6_VAVTERMINAL, Design Size Maximum Flow Fraction during Reheat [], 0.20000
 Component Sizing Information, AirTerminal:SingleDuct:VAV:Reheat, CONFERENCE_1_Z6_VAVTERMINAL, User-Specified Maximum Reheat Water Flow Rate [m3/s], 7.91562
 Component Sizing Information, Coil:Heating:Electric, CONFERENCE_1_Z6_REHEATCOIL, User-Specified Nominal Capacity [W], 2374.68534
 Component Sizing Information, AirTerminal:SingleDuct:VAV:Reheat, BREAK_ROOM_1_Z7_VAVTERMINAL, User-Specified Maximum Air Flow Rate [m3/s], 0.10096
 Component Sizing Information, AirTerminal:SingleDuct:VAV:Reheat, BREAK_ROOM_1_Z7_VAVTERMINAL, Design Size Constant Minimum Air Flow Fraction, 0.20000
 Component Sizing Information, AirTerminal:SingleDuct:VAV:Reheat, BREAK_ROOM_1_Z7_VAVTERMINAL, User-Specified Constant Minimum Air Flow Fraction, 0.20000
 Component Sizing Information, AirTerminal:SingleDuct:VAV:Reheat, BREAK_ROOM_1_Z7_VAVTERMINAL, Design Size Minimum Air Flow Rate [m3/s], 2.01914E-002
 Component Sizing Information, AirTerminal:SingleDuct:VAV:Reheat, BREAK_ROOM_1_Z7_VAVTERMINAL, Design Size Maximum Flow per Zone Floor Area during Reheat [m3/s-m2], 1.00000E-003
 Component Sizing Information, AirTerminal:SingleDuct:VAV:Reheat, BREAK_ROOM_1_Z7_VAVTERMINAL, Design Size Maximum Flow Fraction during Reheat [], 0.20000
 Component Sizing Information, AirTerminal:SingleDuct:VAV:Reheat, BREAK_ROOM_1_Z7_VAVTERMINAL, User-Specified Maximum Reheat Water Flow Rate [m3/s], 1.61532
 Component Sizing Information, Coil:Heating:Electric, BREAK_ROOM_1_Z7_REHEATCOIL, User-Specified Nominal Capacity [W], 484.59457
 Component Sizing Information, AirTerminal:SingleDuct:VAV:Reheat, MECHANICAL_1_Z8_VAVTERMINAL, User-Specified Maximum Air Flow Rate [m3/s], 0.24887
 Component Sizing Information, AirTerminal:SingleDuct:VAV:Reheat, MECHANICAL_1_Z8_VAVTERMINAL, Design Size Constant Minimum Air Flow Fraction, 0.20000
 Component Sizing Information, AirTerminal:SingleDuct:VAV:Reheat, MECHANICAL_1_Z8_VAVTERMINAL, User-Specified Constant Minimum Air Flow Fraction, 0.20000
 Component Sizing Information, AirTerminal:SingleDuct:VAV:Reheat, MECHANICAL_1_Z8_VAVTERMINAL, Design Size Minimum Air Flow Rate [m3/s], 4.97738E-002
 Component Sizing Information, AirTerminal:SingleDuct:VAV:Reheat, MECHANICAL_1_Z8_VAVTERMINAL, Design Size Maximum Flow per Zone Floor Area during Reheat [m3/s-m2], 9.99999E-004
 Component Sizing Information, AirTerminal:SingleDuct:VAV:Reheat, MECHANICAL_1_Z8_VAVTERMINAL, Design Size Maximum Flow Fraction during Reheat [], 0.20000
 Component Sizing Information, AirTerminal:SingleDuct:VAV:Reheat, MECHANICAL_1_Z8_VAVTERMINAL, User-Specified Maximum Reheat Water Flow Rate [m3/s], 3.98190
 Component Sizing Information, Coil:Heating:Electric, MECHANICAL_1_Z8_REHEATCOIL, User-Specified Nominal Capacity [W], 1194.57006
 Component Sizing Information, AirTerminal:SingleDuct:VAV:Reheat, LOBBY_2_Z9_VAVTERMINAL, User-Specified Maximum Air Flow Rate [m3/s], 0.37330
 Component Sizing Information, AirTerminal:SingleDuct:VAV:Reheat, LOBBY_2_Z9_VAVTERMINAL, Design Size Constant Minimum Air Flow Fraction, 0.20000
 Component Sizing Information, AirTerminal:SingleDuct:VAV:Reheat, LOBBY_2_Z9_VAVTERMINAL, User-Specified Constant Minimum Air Flow Fraction, 0.20000
 Component Sizing Information, AirTerminal:SingleDuct:VAV:Reheat, LOBBY_2_Z9_VAVTERMINAL, Design Size Minimum Air Flow Rate [m3/s], 7.46605E-002
 Component Sizing Information, AirTerminal:SingleDuct:VAV:Reheat, LOBBY_2_Z9_VAVTERMINAL, Design Size Maximum Flow per Zone Floor Area during Reheat [m3/s-m2], 1.00001E-003
 Component Sizing Information, AirTerminal:SingleDuct:VAV:Reheat, LOBBY_2_Z9_VAVTERMINAL, Design Size Maximum Flow Fraction during Reheat [], 0.20000
 Component Sizing Information, AirTerminal:SingleDuct:VAV:Reheat, LOBBY_2_Z9_VAVTERMINAL, User-Specified Maximum Reheat Water Flow Rate [m3/s], 5.97284
 Component Sizing Information, Coil:Heating:Electric, LOBBY_2_Z9_REHEATCOIL, User-Specified Nominal Capacity [W], 1791.85283
 Component Sizing Information, AirTerminal:SingleDuct:VAV:Reheat, CONFERENCE_2_Z10_VAVTERMINAL, User-Specified Maximum Air Flow Rate [m3/s], 0.40775
 Component Sizing Information, AirTerminal:SingleDuct:VAV:Reheat, CONFERENCE_2_Z10_VAVTERMINAL, Design Size Constant Minimum Air Flow Fraction, 0.20000
 Component Sizing Information, AirTerminal:SingleDuct:VAV:Reheat, CONFERENCE_2_Z10_VAVTERMINAL, User-Specified Constant Minimum Air Flow Fraction, 0.20000
 Component Sizing Information, AirTerminal:SingleDuct:VAV:Reheat, CONFERENCE_2_Z10_VAVTERMINAL, Design Size Minimum Air Flow Rate [m3/s], 8.15496E-002
 Component Sizing Information, AirTerminal:SingleDuct:VAV:Reheat, CONFERENCE_2_Z10_VAVTERMINAL, Design Size Maximum Flow per Zone Floor Area during Reheat [m3/s-m2], 9.99996E-004
 Component Sizing Information, AirTerminal:SingleDuct:VAV:Reheat, CONFERENCE_2_Z10_VAVTERMINAL, Design Size Maximum Flow Fraction during Reheat [], 0.20000
 Component Sizing Information, AirTerminal:SingleDuct:VAV:Reheat, CONFERENCE_2_Z10_VAVTERMINAL, User-Specified Maximum Reheat Water Flow Rate [m3/s], 6.52397
 Component Sizing Information, Coil:Heating:Electric, CONFERENCE_2_Z10_REHEATCOIL, User-Specified Nominal Capacity [W], 1957.19087
 Component Sizing Information, AirTerminal:SingleDuct:VAV:Reheat, BREAK_ROOM_2_Z11_VAVTERMINAL, User-Specified Maximum Air Flow Rate [m3/s], 0.37133
 Component Sizing Information, AirTerminal:SingleDuct:VAV:Reheat, BREAK_ROOM_2_Z11_VAVTERMINAL, Design Size Constant Minimum Air Flow Fraction, 0.20000
 Component Sizing Information, AirTerminal:SingleDuct:VAV:Reheat, BREAK_ROOM_2_Z11_VAVTERMINAL, User-Specified Constant Minimum Air Flow Fraction, 0.20000
 Component Sizing Information, AirTerminal:SingleDuct:VAV:Reheat, BREAK_ROOM_2_Z11_VAVTERMINAL, Design Size Minimum Air Flow Rate [m3/s], 7.42662E-002
 Component Sizing Information, AirTerminal:SingleDuct:VAV:Reheat, BREAK_ROOM_2_Z11_VAVTERMINAL, Design Size Maximum Flow per Zone Floor Area during Reheat [m3/s-m2], 9.99989E-004
 Component Sizing Information, AirTerminal:SingleDuct:VAV:Reheat, BREAK_ROOM_2_Z11_VAVTERMINAL, Design Size Maximum Flow Fraction during Reheat [], 0.20000
 Component Sizing Information, AirTerminal:SingleDuct:VAV:Reheat, BREAK_ROOM_2_Z11_VAVTERMINAL, User-Specified Maximum Reheat Water Flow Rate [m3/s], 5.94130
 Component Sizing Information, Coil:Heating:Electric, BREAK_ROOM_2_Z11_REHEATCOIL, User-Specified Nominal Capacity [W], 1782.38916
 Component Sizing Information, AirTerminal:SingleDuct:VAV:Reheat, MECHANICAL_2_Z12_VAVTERMINAL, User-Specified Maximum Air Flow Rate [m3/s], 0.37152
 Component Sizing Information, AirTerminal:SingleDuct:VAV:Reheat, MECHANICAL_2_Z12_VAVTERMINAL, Design Size Constant Minimum Air Flow Fraction, 0.20000
 Component Sizing Information, AirTerminal:SingleDuct:VAV:Reheat, MECHANICAL_2_Z12_VAVTERMINAL, User-Specified Constant Minimum Air Flow Fraction, 0.20000
 Component Sizing Information, AirTerminal:SingleDuct:VAV:Reheat, MECHANICAL_2_Z12_VAVTERMINAL, Design Size Minimum Air Flow Rate [m3/s], 7.43039E-002
 Component Sizing Information, AirTerminal:SingleDuct:VAV:Reheat, MECHANICAL_2_Z12_VAVTERMINAL, Design Size Maximum Flow per Zone Floor Area during Reheat [m3/s-m2], 9.99996E-004
 Component Sizing Information, AirTerminal:SingleDuct:VAV:Reheat, MECHANICAL_2_Z12_VAVTERMINAL, Design Size Maximum Flow Fraction during Reheat [], 0.20000
 Component Sizing Information, AirTerminal:SingleDuct:VAV:Reheat, MECHANICAL_2_Z12_VAVTERMINAL, User-Specified Maximum Reheat Water Flow Rate [m3/s], 5.94432
 Component Sizing Information, Coil:Heating:Electric, MECHANICAL_2_Z12_REHEATCOIL, User-Specified Nominal Capacity [W], 1783.29464
 Component Sizing Information, Coil:Cooling:DX:SingleSpeed, LOBBY_0_Z1_COOLINGCOILDX, User-Specified Rated Air Flow Rate [m3/s], 0.63519
 Component Sizing Information, Coil:Cooling:DX:SingleSpeed, LOBBY_0_Z1_COOLINGCOILDX, User-Specified Gross Rated Total Cooling Capacity [W], 12703.83288
 Component Sizing Information, Coil:Cooling:DX:SingleSpeed, LOBBY_0_Z1_COOLINGCOILDX, User-Specified Gross Rated Sensible Heat Ratio, 0.75000
! <DX Cooling Coil Standard Rating Information>, Component Type, Component Name, Standard Rating (Net) Cooling Capacity {W}, Standard Rating Net COP {W/W}, EER {Btu/W-h}, SEER User {Btu/W-h}, SEER Standard {Btu/W-h}, IEER {Btu/W-h}
 DX Cooling Coil Standard Rating Information, Coil:Cooling:DX:SingleSpeed, LOBBY_0_Z1_COOLINGCOILDX, 12210.6, 32.96, 112.48, 62.04, 58.68, 41.3
! <DX Cooling Coil AHRI 2023 Standard Rating Information>, Component Type, Component Name, Standard Rating (Net) Cooling Capacity {W}, Standard Rating Net COP2 {W/W}, EER2 {Btu/W-h}, SEER2 User {Btu/W-h}, SEER2 Standard {Btu/W-h}, IEER 2022 {Btu/W-h}
 DX Cooling Coil AHRI 2023 Standard Rating Information, Coil:Cooling:DX:SingleSpeed, LOBBY_0_Z1_COOLINGCOILDX, 12210.6, 32.96, 112.48, 62.04, 60.36, 41.3
 Component Sizing Information, Coil:Heating:Electric, LOBBY_0_Z1_HEATINGCOIL, User-Specified Nominal Capacity [W], 10163.06631
 Component Sizing Information, Fan:VariableVolume, LOBBY_0_Z1_SUPPLYFAN, User-Specified Maximum Flow Rate [m3/s], 0.63519
 Component Sizing Information, Fan:VariableVolume, LOBBY_0_Z1_SUPPLYFAN, Design Electric Power Consumption [W], 544.44998
 Component Sizing Information, Coil:Cooling:DX:SingleSpeed, CONFERENCE_0_Z2_COOLINGCOILDX, User-Specified Rated Air Flow Rate [m3/s], 0.38722
 Component Sizing Information, Coil:Cooling:DX:SingleSpeed, CONFERENCE_0_Z2_COOLINGCOILDX, User-Specified Gross Rated Total Cooling Capacity [W], 7744.34038
 Component Sizing Information, Coil:Cooling:DX:SingleSpeed, CONFERENCE_0_Z2_COOLINGCOILDX, User-Specified Gross Rated Sensible Heat Ratio, 0.75000
 DX Cooling Coil Standard Rating Information, Coil:Cooling:DX:SingleSpeed, CONFERENCE_0_Z2_COOLINGCOILDX, 7443.7, 32.96, 112.48, 62.04, 58.68, 41.3
 DX Cooling Coil AHRI 2023 Standard Rating Information, Coil:Cooling:DX:SingleSpeed, CONFERENCE_0_Z2_COOLINGCOILDX, 7443.7, 32.96, 112.48, 62.04, 60.36, 41.3
 Component Sizing Information, Coil:Heating:Electric, CONFERENCE_0_Z2_HEATINGCOIL, User-Specified Nominal Capacity [W], 6195.47230
 Component Sizing Information, Fan:VariableVolume, CONFERENCE_0_Z2_SUPPLYFAN, User-Specified Maximum Flow Rate [m3/s], 0.38722
 Component Sizing Information, Fan:VariableVolume, CONFERENCE_0_Z2_SUPPLYFAN, Design Electric Power Consumption [W], 331.90030
 Component Sizing Information, Coil:Cooling:DX:SingleSpeed, BREAK_ROOM_0_Z3_COOLINGCOILDX, User-Specified Rated Air Flow Rate [m3/s], 0.31493
 Component Sizing Information, Coil:Cooling:DX:SingleSpeed, BREAK_ROOM_0_Z3_COOLINGCOILDX, User-Specified Gross Rated Total Cooling Capacity [W], 6298.69709
 Component Sizing Information, Coil:Cooling:DX:SingleSpeed, BREAK_ROOM_0_Z3_COOLINGCOILDX, User-Specified Gross Rated Sensible Heat Ratio, 0.75000
 DX Cooling Coil Standard Rating Information, Coil:Cooling:DX:SingleSpeed, BREAK_ROOM_0_Z3_COOLINGCOILDX, 6054.1, 32.96, 112.48, 62.04, 58.68, 41.3
 DX Cooling Coil AHRI 2023 Standard Rating Information, Coil:Cooling:DX:SingleSpeed, BREAK_ROOM_0_Z3_COOLINGCOILDX, 6054.1, 32.96, 112.48, 62.04, 60.36, 41.3
 Component Sizing Information, Coil:Heating:Electric, BREAK_ROOM_0_Z3_HEATINGCOIL, User-Specified Nominal Capacity [W], 5038.95767
 Component Sizing Information, Fan:VariableVolume, BREAK_ROOM_0_Z3_SUPPLYFAN, User-Specified Maximum Flow Rate [m3/s], 0.31493
 Component Sizing Information, Fan:VariableVolume, BREAK_ROOM_0_Z3_SUPPLYFAN, Design Electric Power Consumption [W], 269.94416
 Component Sizing Information, Coil:Cooling:DX:SingleSpeed, MECHANICAL_0_Z4_COOLINGCOILDX, User-Specified Rated Air Flow Rate [m3/s], 0.15806
 Component Sizing Information, Coil:Cooling:DX:SingleSpeed, MECHANICAL_0_Z4_COOLINGCOILDX, User-Specified Gross Rated Total Cooling Capacity [W], 3161.12539
 Component Sizing Information, Coil:Cooling:DX:SingleSpeed, MECHANICAL_0_Z4_COOLINGCOILDX, User-Specified Gross Rated Sensible Heat Ratio, 0.75000
 DX Cooling Coil Standard Rating Information, Coil:Cooling:DX:SingleSpeed, MECHANICAL_0_Z4_COOLINGCOILDX, 3038.4, 32.96, 112.48, 62.04, 58.68, 41.3
 DX Cooling Coil AHRI 2023 Standard Rating Information, Coil:Cooling:DX:SingleSpeed, MECHANICAL_0_Z4_COOLINGCOILDX, 3038.4, 32.96, 112.48, 62.04, 60.36, 41.3
 Component Sizing Information, Coil:Heating:Electric, MECHANICAL_0_Z4_HEATINGCOIL, User-Specified Nominal Capacity [W], 2528.90031
 Component Sizing Information, Fan:VariableVolume, MECHANICAL_0_Z4_SUPPLYFAN, User-Specified Maximum Flow Rate [m3/s], 0.15806
 Component Sizing Information, Fan:VariableVolume, MECHANICAL_0_Z4_SUPPLYFAN, Design Electric Power Consumption [W], 135.47680
 Component Sizing Information, Coil:Cooling:DX:SingleSpeed, LOBBY_1_Z5_COOLINGCOILDX, User-Specified Rated Air Flow Rate [m3/s], 0.69993
 Component Sizing Information, Coil:Cooling:DX:SingleSpeed, LOBBY_1_Z5_COOLINGCOILDX, User-Specified Gross Rated Total Cooling Capacity [W], 13998.52875
 Component Sizing Information, Coil:Cooling:DX:SingleSpeed, LOBBY_1_Z5_COOLINGCOILDX, User-Specified Gross Rated Sensible Heat Ratio, 0.75000
 DX Cooling Coil Standard Rating Information, Coil:Cooling:DX:SingleSpeed, LOBBY_1_Z5_COOLINGCOILDX, 13455.0, 32.96, 112.48, 62.04, 58.68, 41.3
 DX Cooling Coil AHRI 2023 Standard Rating Information, Coil:Cooling:DX:SingleSpeed, LOBBY_1_Z5_COOLINGCOILDX, 13455.0, 32.96, 112.48, 62.04, 60.36, 41.3
 Component Sizing Information, Coil:Heating:Electric, LOBBY_1_Z5_HEATINGCOIL, User-Specified Nominal Capacity [W], 11198.82300
 Component Sizing Information, Fan:VariableVolume, LOBBY_1_Z5_SUPPLYFAN, User-Specified Maximum Flow Rate [m3/s], 0.69993
 Component Sizing Information, Fan:VariableVolume, LOBBY_1_Z5_SUPPLYFAN, Design Electric Power Consumption [W], 599.93695
 Component Sizing Information, Coil:Cooling:DX:SingleSpeed, CONFERENCE_1_Z6_COOLINGCOILDX, User-Specified Rated Air Flow Rate [m3/s], 0.49473
 Component Sizing Information, Coil:Cooling:DX:SingleSpeed, CONFERENCE_1_Z6_COOLINGCOILDX, User-Specified Gross Rated Total Cooling Capacity [W], 9894.52224
 Component Sizing Information, Coil:Cooling:DX:SingleSpeed, CONFERENCE_1_Z6_COOLINGCOILDX, User-Specified Gross Rated Sensible Heat Ratio, 0.75000
 DX Cooling Coil Standard Rating Information, Coil:Cooling:DX:SingleSpeed, CONFERENCE_1_Z6_COOLINGCOILDX, 9510.4, 32.96, 112.48, 62.04, 58.68, 41.3
 DX Cooling Coil AHRI 2023 Standard Rating Information, Coil:Cooling:DX:SingleSpeed, CONFERENCE_1_Z6_COOLINGCOILDX, 9510.4, 32.96, 112.48, 62.04, 60.36, 41.3
 Component Sizing Information, Coil:Heating:Electric, CONFERENCE_1_Z6_HEATINGCOIL, User-Specified Nominal Capacity [W], 7915.61779
 Component Sizing Information, Fan:VariableVolume, CONFERENCE_1_Z6_SUPPLYFAN, User-Specified Maximum Flow Rate [m3/s], 0.49473
 Component Sizing Information, Fan:VariableVolume, CONFERENCE_1_Z6_SUPPLYFAN, Design Electric Power Consumption [W], 424.05095
 Component Sizing Information, Coil:Cooling:DX:SingleSpeed, BREAK_ROOM_1_Z7_COOLINGCOILDX, User-Specified Rated Air Flow Rate [m3/s], 0.10096
 Component Sizing Information, Coil:Cooling:DX:SingleSpeed, BREAK_ROOM_1_Z7_COOLINGCOILDX, User-Specified Gross Rated Total Cooling Capacity [W], 2019.14405
 Component Sizing Information, Coil:Cooling:DX:SingleSpeed, BREAK_ROOM_1_Z7_COOLINGCOILDX, User-Specified Gross Rated Sensible Heat Ratio, 0.75000
 DX Cooling Coil Standard Rating Information, Coil:Cooling:DX:SingleSpeed, BREAK_ROOM_1_Z7_COOLINGCOILDX, 1940.7, 32.96, 112.48, 62.04, 58.68, 41.3
 DX Cooling Coil AHRI 2023 Standard Rating Information, Coil:Cooling:DX:SingleSpeed, BREAK_ROOM_1_Z7_COOLINGCOILDX, 1940.7, 32.96, 112.48, 62.04, 60.36, 41.3
 Component Sizing Information, Coil:Heating:Electric, BREAK_ROOM_1_Z7_HEATINGCOIL, User-Specified Nominal Capacity [W], 1615.31524
 Component Sizing Information, Fan:VariableVolume, BREAK_ROOM_1_Z7_SUPPLYFAN, User-Specified Maximum Flow Rate [m3/s], 0.10096
 Component Sizing Information, Fan:VariableVolume, BREAK_ROOM_1_Z7_SUPPLYFAN, Design Electric Power Consumption [W], 86.53474
 Component Sizing Information, Coil:Cooling:DX:SingleSpeed, MECHANICAL_1_Z8_COOLINGCOILDX, User-Specified Rated Air Flow Rate [m3/s], 0.24887
 Component Sizing Information, Coil:Cooling:DX:SingleSpeed, MECHANICAL_1_Z8_COOLINGCOILDX, User-Specified Gross Rated Total Cooling Capacity [W], 4977.37526
 Component Sizing Information, Coil:Cooling:DX:SingleSpeed, MECHANICAL_1_Z8_COOLINGCOILDX, User-Specified Gross Rated Sensible Heat Ratio, 0.75000
 DX Cooling Coil Standard Rating Information, Coil:Cooling:DX:SingleSpeed, MECHANICAL_1_Z8_COOLINGCOILDX, 4784.1, 32.96, 112.48, 62.04, 58.68, 41.3
 DX Cooling Coil AHRI 2023 Standard Rating Information, Coil:Cooling:DX:SingleSpeed, MECHANICAL_1_Z8_COOLINGCOILDX, 4784.1, 32.96, 112.48, 62.04, 60.36, 41.3
 Component Sizing Information, Coil:Heating:Electric, MECHANICAL_1_Z8_HEATINGCOIL, User-Specified Nominal Capacity [W], 3981.90021
 Component Sizing Information, Fan:VariableVolume, MECHANICAL_1_Z8_SUPPLYFAN, User-Specified Maximum Flow Rate [m3/s], 0.24887
 Component Sizing Information, Fan:VariableVolume, MECHANICAL_1_Z8_SUPPLYFAN, Design Electric Power Consumption [W], 213.31608
 Component Sizing Information, Coil:Cooling:DX:SingleSpeed, LOBBY_2_Z9_COOLINGCOILDX, User-Specified Rated Air Flow Rate [m3/s], 0.37330
 Component Sizing Information, Coil:Cooling:DX:SingleSpeed, LOBBY_2_Z9_COOLINGCOILDX, User-Specified Gross Rated Total Cooling Capacity [W], 7466.05347
 Component Sizing Information, Coil:Cooling:DX:SingleSpeed, LOBBY_2_Z9_COOLINGCOILDX, User-Specified Gross Rated Sensible Heat Ratio, 0.75000
 DX Cooling Coil Standard Rating Information, Coil:Cooling:DX:SingleSpeed, LOBBY_2_Z9_COOLINGCOILDX, 7176.2, 32.96, 112.48, 62.04, 58.68, 41.3
 DX Cooling Coil AHRI 2023 Standard Rating Information, Coil:Cooling:DX:SingleSpeed, LOBBY_2_Z9_COOLINGCOILDX, 7176.2, 32.96, 112.48, 62.04, 60.36, 41.3
 Component Sizing Information, Coil:Heating:Electric, LOBBY_2_Z9_HEATINGCOIL, User-Specified Nominal Capacity [W], 5972.84278
 Component Sizing Information, Fan:VariableVolume, LOBBY_2_Z9_SUPPLYFAN, User-Specified Maximum Flow Rate [m3/s], 0.37330
 Component Sizing Information, Fan:VariableVolume, LOBBY_2_Z9_SUPPLYFAN, Design Electric Power Consumption [W], 319.97372
 Component Sizing Information, Coil:Cooling:DX:SingleSpeed, CONFERENCE_2_Z10_COOLINGCOILDX, User-Specified Rated Air Flow Rate [m3/s], 0.40775
 Component Sizing Information, Coil:Cooling:DX:SingleSpeed, CONFERENCE_2_Z10_COOLINGCOILDX, User-Specified Gross Rated Total Cooling Capacity [W], 8154.96195
 Component Sizing Information, Coil:Cooling:DX:SingleSpeed, CONFERENCE_2_Z10_COOLINGCOILDX, User-Specified Gross Rated Sensible Heat Ratio, 0.75000
 DX Cooling Coil Standard Rating Information, Coil:Cooling:DX:SingleSpeed, CONFERENCE_2_Z10_COOLINGCOILDX, 7838.3, 32.96, 112.48, 62.04, 58.68, 41.3
 DX Cooling Coil AHRI 2023 Standard Rating Information, Coil:Cooling:DX:SingleSpeed, CONFERENCE_2_Z10_COOLINGCOILDX, 7838.3, 32.96, 112.48, 62.04, 60.36, 41.3
 Component Sizing Information, Coil:Heating:Electric, CONFERENCE_2_Z10_HEATINGCOIL, User-Specified Nominal Capacity [W], 6523.96956
 Component Sizing Information, Fan:VariableVolume, CONFERENCE_2_Z10_SUPPLYFAN, User-Specified Maximum Flow Rate [m3/s], 0.40775
 Component Sizing Information, Fan:VariableVolume, CONFERENCE_2_Z10_SUPPLYFAN, Design Electric Power Consumption [W], 349.49837
 Component Sizing Information, Coil:Cooling:DX:SingleSpeed, BREAK_ROOM_2_Z11_COOLINGCOILDX, User-Specified Rated Air Flow Rate [m3/s], 0.37133
 Component Sizing Information, Coil:Cooling:DX:SingleSpeed, BREAK_ROOM_2_Z11_COOLINGCOILDX, User-Specified Gross Rated Total Cooling Capacity [W], 7426.62151
 Component Sizing Information, Coil:Cooling:DX:SingleSpeed, BREAK_ROOM_2_Z11_COOLINGCOILDX, User-Specified Gross Rated Sensible Heat Ratio, 0.75000
 DX Cooling Coil Standard Rating Information, Coil:Cooling:DX:SingleSpeed, BREAK_ROOM_2_Z11_COOLINGCOILDX, 7138.3, 32.96, 112.48, 62.04, 58.68, 41.3
 DX Cooling Coil AHRI 2023 Standard Rating Information, Coil:Cooling:DX:SingleSpeed, BREAK_ROOM_2_Z11_COOLINGCOILDX, 7138.3, 32.96, 112.48, 62.04, 60.36, 41.3
 Component Sizing Information, Coil:Heating:Electric, BREAK_ROOM_2_Z11_HEATINGCOIL, User-Specified Nominal Capacity [W], 5941.29721
 Component Sizing Information, Fan:VariableVolume, BREAK_ROOM_2_Z11_SUPPLYFAN, User-Specified Maximum Flow Rate [m3/s], 0.37133
 Component Sizing Information, Fan:VariableVolume, BREAK_ROOM_2_Z11_SUPPLYFAN, Design Electric Power Consumption [W], 318.28378
 Component Sizing Information, Coil:Cooling:DX:SingleSpeed, MECHANICAL_2_Z12_COOLINGCOILDX, User-Specified Rated Air Flow Rate [m3/s], 0.37152
 Component Sizing Information, Coil:Cooling:DX:SingleSpeed, MECHANICAL_2_Z12_COOLINGCOILDX, User-Specified Gross Rated Total Cooling Capacity [W], 7430.39435
 Component Sizing Information, Coil:Cooling:DX:SingleSpeed, MECHANICAL_2_Z12_COOLINGCOILDX, User-Specified Gross Rated Sensible Heat Ratio, 0.75000
 DX Cooling Coil Standard Rating Information, Coil:Cooling:DX:SingleSpeed, MECHANICAL_2_Z12_COOLINGCOILDX, 7141.9, 32.96, 112.48, 62.04, 58.68, 41.3
 DX Cooling Coil AHRI 2023 Standard Rating Information, Coil:Cooling:DX:SingleSpeed, MECHANICAL_2_Z12_COOLINGCOILDX, 7141.9, 32.96, 112.48, 62.04, 60.36, 41.3
 Component Sizing Information, Coil:Heating:Electric, MECHANICAL_2_Z12_HEATINGCOIL, User-Specified Nominal Capacity [W], 5944.31548
 Component Sizing Information, Fan:VariableVolume, MECHANICAL_2_Z12_SUPPLYFAN, User-Specified Maximum Flow Rate [m3/s], 0.37152
 Component Sizing Information, Fan:VariableVolume, MECHANICAL_2_Z12_SUPPLYFAN, Design Electric Power Consumption [W], 318.44547
! <Environment>,Environment Name,Environment Type, Start Date, End Date, Start DayOfWeek, Duration {#days}, Source:Start DayOfWeek,  Use Daylight Saving, Use Holidays, Apply Weekend Holiday Rule,  Use Rain Values, Use Snow Values, Sky Temperature Model
! <Environment:Special Days>, Special Day Name, Special Day Type, Source, Start Date, Duration {#days}
! <Environment:Daylight Saving>, Daylight Saving Indicator, Source, Start Date, End Date
! <Environment:WarmupDays>, NumberofWarmupDays
Environment,YEAR ROUND RUN PERIOD,WeatherFileRunPeriod,01/01/2017,12/31/2017,Sunday,365,Use RunPeriod Specified Day,Yes,Yes,Yes,Yes,Yes,Clark and Allen
Environment:Daylight Saving,No,
! <Sky Daylight Factors>, Sky Type, MonthAndDay, Daylighting Control Name, Enclosure Name, Window Name, Reference Point, Daylight Factor
 Sky Daylight Factors,Clear Sky,01/01,LOBBY_0_DAYLIGHT,LOBBY_0,LOBBY_0_WINDOW_1,LOBBY_0_REFERENCEPOINT1,4.4627E-007
 Sky Daylight Factors,Clear Turbid Sky,01/01,LOBBY_0_DAYLIGHT,LOBBY_0,LOBBY_0_WINDOW_1,LOBBY_0_REFERENCEPOINT1,4.2895E-007
 Sky Daylight Factors,Intermediate Sky,01/01,LOBBY_0_DAYLIGHT,LOBBY_0,LOBBY_0_WINDOW_1,LOBBY_0_REFERENCEPOINT1,6.2030E-007
 Sky Daylight Factors,Overcast Sky,01/01,LOBBY_0_DAYLIGHT,LOBBY_0,LOBBY_0_WINDOW_1,LOBBY_0_REFERENCEPOINT1,9.1103E-007
 Sky Daylight Factors,Clear Sky,01/01,LOBBY_0_DAYLIGHT,LOBBY_0,LOBBY_0_WINDOW_4,LOBBY_0_REFERENCEPOINT1,0.0000
 Sky Daylight Factors,Clear Turbid Sky,01/01,LOBBY_0_DAYLIGHT,LOBBY_0,LOBBY_0_WINDOW_4,LOBBY_0_REFERENCEPOINT1,0.0000
 Sky Daylight Factors,Intermediate Sky,01/01,LOBBY_0_DAYLIGHT,LOBBY_0,LOBBY_0_WINDOW_4,LOBBY_0_REFERENCEPOINT1,0.0000
 Sky Daylight Factors,Overcast Sky,01/01,LOBBY_0_DAYLIGHT,LOBBY_0,LOBBY_0_WINDOW_4,LOBBY_0_REFERENCEPOINT1,0.0000
 Sky Daylight Factors,Clear Sky,01/01,LOBBY_0_DAYLIGHT,LOBBY_0,LOBBY_0_WINDOW_5,LOBBY_0_REFERENCEPOINT1,0.0000
 Sky Daylight Factors,Clear Turbid Sky,01/01,LOBBY_0_DAYLIGHT,LOBBY_0,LOBBY_0_WINDOW_5,LOBBY_0_REFERENCEPOINT1,0.0000
 Sky Daylight Factors,Intermediate Sky,01/01,LOBBY_0_DAYLIGHT,LOBBY_0,LOBBY_0_WINDOW_5,LOBBY_0_REFERENCEPOINT1,0.0000
 Sky Daylight Factors,Overcast Sky,01/01,LOBBY_0_DAYLIGHT,LOBBY_0,LOBBY_0_WINDOW_5,LOBBY_0_REFERENCEPOINT1,0.0000
 Sky Daylight Factors,Clear Sky,01/01,LOBBY_0_DAYLIGHT,LOBBY_0,LOBBY_0_WINDOW_6,LOBBY_0_REFERENCEPOINT1,3.1251E-007
 Sky Daylight Factors,Clear Turbid Sky,01/01,LOBBY_0_DAYLIGHT,LOBBY_0,LOBBY_0_WINDOW_6,LOBBY_0_REFERENCEPOINT1,2.7325E-007
 Sky Daylight Factors,Intermediate Sky,01/01,LOBBY_0_DAYLIGHT,LOBBY_0,LOBBY_0_WINDOW_6,LOBBY_0_REFERENCEPOINT1,5.0885E-007
 Sky Daylight Factors,Overcast Sky,01/01,LOBBY_0_DAYLIGHT,LOBBY_0,LOBBY_0_WINDOW_6,LOBBY_0_REFERENCEPOINT1,6.1935E-007
 Sky Daylight Factors,Clear Sky,01/01,LOBBY_0_DAYLIGHT,LOBBY_0,LOBBY_0_WINDOW_7,LOBBY_0_REFERENCEPOINT1,7.8976E-008
 Sky Daylight Factors,Clear Turbid Sky,01/01,LOBBY_0_DAYLIGHT,LOBBY_0,LOBBY_0_WINDOW_7,LOBBY_0_REFERENCEPOINT1,7.6237E-008
 Sky Daylight Factors,Intermediate Sky,01/01,LOBBY_0_DAYLIGHT,LOBBY_0,LOBBY_0_WINDOW_7,LOBBY_0_REFERENCEPOINT1,1.0678E-007
 Sky Daylight Factors,Overcast Sky,01/01,LOBBY_0_DAYLIGHT,LOBBY_0,LOBBY_0_WINDOW_7,LOBBY_0_REFERENCEPOINT1,1.5704E-007
 Sky Daylight Factors,Clear Sky,01/01,CONFERENCE_0_DAYLIGHT,CONFERENCE_0,CONFERENCE_0_WINDOW_1,CONFERENCE_0_REFERENCEPOINT1,0.0000
 Sky Daylight Factors,Clear Turbid Sky,01/01,CONFERENCE_0_DAYLIGHT,CONFERENCE_0,CONFERENCE_0_WINDOW_1,CONFERENCE_0_REFERENCEPOINT1,0.0000
 Sky Daylight Factors,Intermediate Sky,01/01,CONFERENCE_0_DAYLIGHT,CONFERENCE_0,CONFERENCE_0_WINDOW_1,CONFERENCE_0_REFERENCEPOINT1,0.0000
 Sky Daylight Factors,Overcast Sky,01/01,CONFERENCE_0_DAYLIGHT,CONFERENCE_0,CONFERENCE_0_WINDOW_1,CONFERENCE_0_REFERENCEPOINT1,0.0000
 Sky Daylight Factors,Clear Sky,01/01,CONFERENCE_0_DAYLIGHT,CONFERENCE_0,CONFERENCE_0_WINDOW_2,CONFERENCE_0_REFERENCEPOINT1,6.5693E-007
 Sky Daylight Factors,Clear Turbid Sky,01/01,CONFERENCE_0_DAYLIGHT,CONFERENCE_0,CONFERENCE_0_WINDOW_2,CONFERENCE_0_REFERENCEPOINT1,6.3143E-007
 Sky Daylight Factors,Intermediate Sky,01/01,CONFERENCE_0_DAYLIGHT,CONFERENCE_0,CONFERENCE_0_WINDOW_2,CONFERENCE_0_REFERENCEPOINT1,9.1311E-007
 Sky Daylight Factors,Overcast Sky,01/01,CONFERENCE_0_DAYLIGHT,CONFERENCE_0,CONFERENCE_0_WINDOW_2,CONFERENCE_0_REFERENCEPOINT1,1.3411E-006
 Sky Daylight Factors,Clear Sky,01/01,CONFERENCE_0_DAYLIGHT,CONFERENCE_0,CONFERENCE_0_WINDOW_3,CONFERENCE_0_REFERENCEPOINT1,0.0000
 Sky Daylight Factors,Clear Turbid Sky,01/01,CONFERENCE_0_DAYLIGHT,CONFERENCE_0,CONFERENCE_0_WINDOW_3,CONFERENCE_0_REFERENCEPOINT1,0.0000
 Sky Daylight Factors,Intermediate Sky,01/01,CONFERENCE_0_DAYLIGHT,CONFERENCE_0,CONFERENCE_0_WINDOW_3,CONFERENCE_0_REFERENCEPOINT1,0.0000
 Sky Daylight Factors,Overcast Sky,01/01,CONFERENCE_0_DAYLIGHT,CONFERENCE_0,CONFERENCE_0_WINDOW_3,CONFERENCE_0_REFERENCEPOINT1,0.0000
 Sky Daylight Factors,Clear Sky,01/01,CONFERENCE_0_DAYLIGHT,CONFERENCE_0,CONFERENCE_0_WINDOW_4,CONFERENCE_0_REFERENCEPOINT1,0.0000
 Sky Daylight Factors,Clear Turbid Sky,01/01,CONFERENCE_0_DAYLIGHT,CONFERENCE_0,CONFERENCE_0_WINDOW_4,CONFERENCE_0_REFERENCEPOINT1,0.0000
 Sky Daylight Factors,Intermediate Sky,01/01,CONFERENCE_0_DAYLIGHT,CONFERENCE_0,CONFERENCE_0_WINDOW_4,CONFERENCE_0_REFERENCEPOINT1,0.0000
 Sky Daylight Factors,Overcast Sky,01/01,CONFERENCE_0_DAYLIGHT,CONFERENCE_0,CONFERENCE_0_WINDOW_4,CONFERENCE_0_REFERENCEPOINT1,0.0000
 Sky Daylight Factors,Clear Sky,01/01,BREAK_ROOM_0_DAYLIGHT,BREAK_ROOM_0,BREAK_ROOM_0_WINDOW_1,BREAK_ROOM_0_REFERENCEPOINT1,0.0000
 Sky Daylight Factors,Clear Turbid Sky,01/01,BREAK_ROOM_0_DAYLIGHT,BREAK_ROOM_0,BREAK_ROOM_0_WINDOW_1,BREAK_ROOM_0_REFERENCEPOINT1,0.0000
 Sky Daylight Factors,Intermediate Sky,01/01,BREAK_ROOM_0_DAYLIGHT,BREAK_ROOM_0,BREAK_ROOM_0_WINDOW_1,BREAK_ROOM_0_REFERENCEPOINT1,0.0000
 Sky Daylight Factors,Overcast Sky,01/01,BREAK_ROOM_0_DAYLIGHT,BREAK_ROOM_0,BREAK_ROOM_0_WINDOW_1,BREAK_ROOM_0_REFERENCEPOINT1,0.0000
 Sky Daylight Factors,Clear Sky,01/01,BREAK_ROOM_0_DAYLIGHT,BREAK_ROOM_0,BREAK_ROOM_0_WINDOW_2,BREAK_ROOM_0_REFERENCEPOINT1,0.0000
 Sky Daylight Factors,Clear Turbid Sky,01/01,BREAK_ROOM_0_DAYLIGHT,BREAK_ROOM_0,BREAK_ROOM_0_WINDOW_2,BREAK_ROOM_0_REFERENCEPOINT1,0.0000
 Sky Daylight Factors,Intermediate Sky,01/01,BREAK_ROOM_0_DAYLIGHT,BREAK_ROOM_0,BREAK_ROOM_0_WINDOW_2,BREAK_ROOM_0_REFERENCEPOINT1,0.0000
 Sky Daylight Factors,Overcast Sky,01/01,BREAK_ROOM_0_DAYLIGHT,BREAK_ROOM_0,BREAK_ROOM_0_WINDOW_2,BREAK_ROOM_0_REFERENCEPOINT1,0.0000
 Sky Daylight Factors,Clear Sky,01/01,BREAK_ROOM_0_DAYLIGHT,BREAK_ROOM_0,BREAK_ROOM_0_WINDOW_3,BREAK_ROOM_0_REFERENCEPOINT1,1.5057E-007
 Sky Daylight Factors,Clear Turbid Sky,01/01,BREAK_ROOM_0_DAYLIGHT,BREAK_ROOM_0,BREAK_ROOM_0_WINDOW_3,BREAK_ROOM_0_REFERENCEPOINT1,1.3457E-007
 Sky Daylight Factors,Intermediate Sky,01/01,BREAK_ROOM_0_DAYLIGHT,BREAK_ROOM_0,BREAK_ROOM_0_WINDOW_3,BREAK_ROOM_0_REFERENCEPOINT1,2.3766E-007
 Sky Daylight Factors,Overcast Sky,01/01,BREAK_ROOM_0_DAYLIGHT,BREAK_ROOM_0,BREAK_ROOM_0_WINDOW_3,BREAK_ROOM_0_REFERENCEPOINT1,3.6887E-007
 Sky Daylight Factors,Clear Sky,01/01,BREAK_ROOM_0_DAYLIGHT,BREAK_ROOM_0,BREAK_ROOM_0_WINDOW_4,BREAK_ROOM_0_REFERENCEPOINT1,0.0000
 Sky Daylight Factors,Clear Turbid Sky,01/01,BREAK_ROOM_0_DAYLIGHT,BREAK_ROOM_0,BREAK_ROOM_0_WINDOW_4,BREAK_ROOM_0_REFERENCEPOINT1,0.0000
 Sky Daylight Factors,Intermediate Sky,01/01,BREAK_ROOM_0_DAYLIGHT,BREAK_ROOM_0,BREAK_ROOM_0_WINDOW_4,BREAK_ROOM_0_REFERENCEPOINT1,0.0000
 Sky Daylight Factors,Overcast Sky,01/01,BREAK_ROOM_0_DAYLIGHT,BREAK_ROOM_0,BREAK_ROOM_0_WINDOW_4,BREAK_ROOM_0_REFERENCEPOINT1,0.0000
 Sky Daylight Factors,Clear Sky,01/01,LOBBY_1_DAYLIGHT,LOBBY_1,LOBBY_1_WINDOW_1,LOBBY_1_REFERENCEPOINT1,6.4568E-008
 Sky Daylight Factors,Clear Turbid Sky,01/01,LOBBY_1_DAYLIGHT,LOBBY_1,LOBBY_1_WINDOW_1,LOBBY_1_REFERENCEPOINT1,5.8054E-008
 Sky Daylight Factors,Intermediate Sky,01/01,LOBBY_1_DAYLIGHT,LOBBY_1,LOBBY_1_WINDOW_1,LOBBY_1_REFERENCEPOINT1,1.0198E-007
 Sky Daylight Factors,Overcast Sky,01/01,LOBBY_1_DAYLIGHT,LOBBY_1,LOBBY_1_WINDOW_1,LOBBY_1_REFERENCEPOINT1,1.6738E-007
 Sky Daylight Factors,Clear Sky,01/01,LOBBY_1_DAYLIGHT,LOBBY_1,LOBBY_1_WINDOW_2,LOBBY_1_REFERENCEPOINT1,1.3157E-006
 Sky Daylight Factors,Clear Turbid Sky,01/01,LOBBY_1_DAYLIGHT,LOBBY_1,LOBBY_1_WINDOW_2,LOBBY_1_REFERENCEPOINT1,1.0432E-006
 Sky Daylight Factors,Intermediate Sky,01/01,LOBBY_1_DAYLIGHT,LOBBY_1,LOBBY_1_WINDOW_2,LOBBY_1_REFERENCEPOINT1,1.4024E-006
 Sky Daylight Factors,Overcast Sky,01/01,LOBBY_1_DAYLIGHT,LOBBY_1,LOBBY_1_WINDOW_2,LOBBY_1_REFERENCEPOINT1,2.8523E-006
 Sky Daylight Factors,Clear Sky,01/01,LOBBY_1_DAYLIGHT,LOBBY_1,LOBBY_1_WINDOW_3,LOBBY_1_REFERENCEPOINT1,1.1660E-006
 Sky Daylight Factors,Clear Turbid Sky,01/01,LOBBY_1_DAYLIGHT,LOBBY_1,LOBBY_1_WINDOW_3,LOBBY_1_REFERENCEPOINT1,1.0292E-006
 Sky Daylight Factors,Intermediate Sky,01/01,LOBBY_1_DAYLIGHT,LOBBY_1,LOBBY_1_WINDOW_3,LOBBY_1_REFERENCEPOINT1,1.8680E-006
 Sky Daylight Factors,Overcast Sky,01/01,LOBBY_1_DAYLIGHT,LOBBY_1,LOBBY_1_WINDOW_3,LOBBY_1_REFERENCEPOINT1,2.7502E-006
 Sky Daylight Factors,Clear Sky,01/01,LOBBY_1_DAYLIGHT,LOBBY_1,LOBBY_1_WINDOW_4,LOBBY_1_REFERENCEPOINT1,5.7896E-007
 Sky Daylight Factors,Clear Turbid Sky,01/01,LOBBY_1_DAYLIGHT,LOBBY_1,LOBBY_1_WINDOW_4,LOBBY_1_REFERENCEPOINT1,5.5650E-007
 Sky Daylight Factors,Intermediate Sky,01/01,LOBBY_1_DAYLIGHT,LOBBY_1,LOBBY_1_WINDOW_4,LOBBY_1_REFERENCEPOINT1,8.0475E-007
 Sky Daylight Factors,Overcast Sky,01/01,LOBBY_1_DAYLIGHT,LOBBY_1,LOBBY_1_WINDOW_4,LOBBY_1_REFERENCEPOINT1,1.1819E-006
 Sky Daylight Factors,Clear Sky,01/01,LOBBY_1_DAYLIGHT,LOBBY_1,LOBBY_1_WINDOW_5,LOBBY_1_REFERENCEPOINT1,4.8199E-007
 Sky Daylight Factors,Clear Turbid Sky,01/01,LOBBY_1_DAYLIGHT,LOBBY_1,LOBBY_1_WINDOW_5,LOBBY_1_REFERENCEPOINT1,4.3241E-007
 Sky Daylight Factors,Intermediate Sky,01/01,LOBBY_1_DAYLIGHT,LOBBY_1,LOBBY_1_WINDOW_5,LOBBY_1_REFERENCEPOINT1,7.6107E-007
 Sky Daylight Factors,Overcast Sky,01/01,LOBBY_1_DAYLIGHT,LOBBY_1,LOBBY_1_WINDOW_5,LOBBY_1_REFERENCEPOINT1,1.2292E-006
 Sky Daylight Factors,Clear Sky,01/01,LOBBY_1_DAYLIGHT,LOBBY_1,LOBBY_1_WINDOW_6,LOBBY_1_REFERENCEPOINT1,1.0669E-005
 Sky Daylight Factors,Clear Turbid Sky,01/01,LOBBY_1_DAYLIGHT,LOBBY_1,LOBBY_1_WINDOW_6,LOBBY_1_REFERENCEPOINT1,1.3162E-005
 Sky Daylight Factors,Intermediate Sky,01/01,LOBBY_1_DAYLIGHT,LOBBY_1,LOBBY_1_WINDOW_6,LOBBY_1_REFERENCEPOINT1,4.8271E-006
 Sky Daylight Factors,Overcast Sky,01/01,LOBBY_1_DAYLIGHT,LOBBY_1,LOBBY_1_WINDOW_6,LOBBY_1_REFERENCEPOINT1,1.5209E-006
 Sky Daylight Factors,Clear Sky,01/01,LOBBY_1_DAYLIGHT,LOBBY_1,LOBBY_1_WINDOW_7,LOBBY_1_REFERENCEPOINT1,1.5527E-007
 Sky Daylight Factors,Clear Turbid Sky,01/01,LOBBY_1_DAYLIGHT,LOBBY_1,LOBBY_1_WINDOW_7,LOBBY_1_REFERENCEPOINT1,1.3764E-007
 Sky Daylight Factors,Intermediate Sky,01/01,LOBBY_1_DAYLIGHT,LOBBY_1,LOBBY_1_WINDOW_7,LOBBY_1_REFERENCEPOINT1,2.4782E-007
 Sky Daylight Factors,Overcast Sky,01/01,LOBBY_1_DAYLIGHT,LOBBY_1,LOBBY_1_WINDOW_7,LOBBY_1_REFERENCEPOINT1,3.8402E-007
 Sky Daylight Factors,Clear Sky,01/01,LOBBY_1_DAYLIGHT,LOBBY_1,LOBBY_1_WINDOW_8,LOBBY_1_REFERENCEPOINT1,3.9216E-007
 Sky Daylight Factors,Clear Turbid Sky,01/01,LOBBY_1_DAYLIGHT,LOBBY_1,LOBBY_1_WINDOW_8,LOBBY_1_REFERENCEPOINT1,3.7698E-007
 Sky Daylight Factors,Intermediate Sky,01/01,LOBBY_1_DAYLIGHT,LOBBY_1,LOBBY_1_WINDOW_8,LOBBY_1_REFERENCEPOINT1,5.4505E-007
 Sky Daylight Factors,Overcast Sky,01/01,LOBBY_1_DAYLIGHT,LOBBY_1,LOBBY_1_WINDOW_8,LOBBY_1_REFERENCEPOINT1,8.0031E-007
 Sky Daylight Factors,Clear Sky,01/01,CONFERENCE_1_DAYLIGHT,CONFERENCE_1,CONFERENCE_1_WINDOW_1,CONFERENCE_1_REFERENCEPOINT1,0.0000
 Sky Daylight Factors,Clear Turbid Sky,01/01,CONFERENCE_1_DAYLIGHT,CONFERENCE_1,CONFERENCE_1_WINDOW_1,CONFERENCE_1_REFERENCEPOINT1,0.0000
 Sky Daylight Factors,Intermediate Sky,01/01,CONFERENCE_1_DAYLIGHT,CONFERENCE_1,CONFERENCE_1_WINDOW_1,CONFERENCE_1_REFERENCEPOINT1,0.0000
 Sky Daylight Factors,Overcast Sky,01/01,CONFERENCE_1_DAYLIGHT,CONFERENCE_1,CONFERENCE_1_WINDOW_1,CONFERENCE_1_REFERENCEPOINT1,0.0000
 Sky Daylight Factors,Clear Sky,01/01,CONFERENCE_1_DAYLIGHT,CONFERENCE_1,CONFERENCE_1_WINDOW_2,CONFERENCE_1_REFERENCEPOINT1,0.0000
 Sky Daylight Factors,Clear Turbid Sky,01/01,CONFERENCE_1_DAYLIGHT,CONFERENCE_1,CONFERENCE_1_WINDOW_2,CONFERENCE_1_REFERENCEPOINT1,0.0000
 Sky Daylight Factors,Intermediate Sky,01/01,CONFERENCE_1_DAYLIGHT,CONFERENCE_1,CONFERENCE_1_WINDOW_2,CONFERENCE_1_REFERENCEPOINT1,0.0000
 Sky Daylight Factors,Overcast Sky,01/01,CONFERENCE_1_DAYLIGHT,CONFERENCE_1,CONFERENCE_1_WINDOW_2,CONFERENCE_1_REFERENCEPOINT1,0.0000
 Sky Daylight Factors,Clear Sky,01/01,CONFERENCE_1_DAYLIGHT,CONFERENCE_1,CONFERENCE_1_WINDOW_3,CONFERENCE_1_REFERENCEPOINT1,0.0000
 Sky Daylight Factors,Clear Turbid Sky,01/01,CONFERENCE_1_DAYLIGHT,CONFERENCE_1,CONFERENCE_1_WINDOW_3,CONFERENCE_1_REFERENCEPOINT1,0.0000
 Sky Daylight Factors,Intermediate Sky,01/01,CONFERENCE_1_DAYLIGHT,CONFERENCE_1,CONFERENCE_1_WINDOW_3,CONFERENCE_1_REFERENCEPOINT1,0.0000
 Sky Daylight Factors,Overcast Sky,01/01,CONFERENCE_1_DAYLIGHT,CONFERENCE_1,CONFERENCE_1_WINDOW_3,CONFERENCE_1_REFERENCEPOINT1,0.0000
 Sky Daylight Factors,Clear Sky,01/01,CONFERENCE_1_DAYLIGHT,CONFERENCE_1,CONFERENCE_1_WINDOW_4,CONFERENCE_1_REFERENCEPOINT1,5.9927E-007
 Sky Daylight Factors,Clear Turbid Sky,01/01,CONFERENCE_1_DAYLIGHT,CONFERENCE_1,CONFERENCE_1_WINDOW_4,CONFERENCE_1_REFERENCEPOINT1,5.7606E-007
 Sky Daylight Factors,Intermediate Sky,01/01,CONFERENCE_1_DAYLIGHT,CONFERENCE_1,CONFERENCE_1_WINDOW_4,CONFERENCE_1_REFERENCEPOINT1,8.3290E-007
 Sky Daylight Factors,Overcast Sky,01/01,CONFERENCE_1_DAYLIGHT,CONFERENCE_1,CONFERENCE_1_WINDOW_4,CONFERENCE_1_REFERENCEPOINT1,1.2230E-006
 Sky Daylight Factors,Clear Sky,01/01,BREAK_ROOM_1_DAYLIGHT,BREAK_ROOM_1,BREAK_ROOM_1_WINDOW_1,BREAK_ROOM_1_REFERENCEPOINT1,1.4240E-006
 Sky Daylight Factors,Clear Turbid Sky,01/01,BREAK_ROOM_1_DAYLIGHT,BREAK_ROOM_1,BREAK_ROOM_1_WINDOW_1,BREAK_ROOM_1_REFERENCEPOINT1,1.2570E-006
 Sky Daylight Factors,Intermediate Sky,01/01,BREAK_ROOM_1_DAYLIGHT,BREAK_ROOM_1,BREAK_ROOM_1_WINDOW_1,BREAK_ROOM_1_REFERENCEPOINT1,2.2815E-006
 Sky Daylight Factors,Overcast Sky,01/01,BREAK_ROOM_1_DAYLIGHT,BREAK_ROOM_1,BREAK_ROOM_1_WINDOW_1,BREAK_ROOM_1_REFERENCEPOINT1,3.3589E-006
 Sky Daylight Factors,Clear Sky,01/01,BREAK_ROOM_1_DAYLIGHT,BREAK_ROOM_1,BREAK_ROOM_1_WINDOW_2,BREAK_ROOM_1_REFERENCEPOINT1,0.0000
 Sky Daylight Factors,Clear Turbid Sky,01/01,BREAK_ROOM_1_DAYLIGHT,BREAK_ROOM_1,BREAK_ROOM_1_WINDOW_2,BREAK_ROOM_1_REFERENCEPOINT1,0.0000
 Sky Daylight Factors,Intermediate Sky,01/01,BREAK_ROOM_1_DAYLIGHT,BREAK_ROOM_1,BREAK_ROOM_1_WINDOW_2,BREAK_ROOM_1_REFERENCEPOINT1,0.0000
 Sky Daylight Factors,Overcast Sky,01/01,BREAK_ROOM_1_DAYLIGHT,BREAK_ROOM_1,BREAK_ROOM_1_WINDOW_2,BREAK_ROOM_1_REFERENCEPOINT1,0.0000
 Sky Daylight Factors,Clear Sky,01/01,BREAK_ROOM_1_DAYLIGHT,BREAK_ROOM_1,BREAK_ROOM_1_WINDOW_3,BREAK_ROOM_1_REFERENCEPOINT1,0.0000
 Sky Daylight Factors,Clear Turbid Sky,01/01,BREAK_ROOM_1_DAYLIGHT,BREAK_ROOM_1,BREAK_ROOM_1_WINDOW_3,BREAK_ROOM_1_REFERENCEPOINT1,0.0000
 Sky Daylight Factors,Intermediate Sky,01/01,BREAK_ROOM_1_DAYLIGHT,BREAK_ROOM_1,BREAK_ROOM_1_WINDOW_3,BREAK_ROOM_1_REFERENCEPOINT1,0.0000
 Sky Daylight Factors,Overcast Sky,01/01,BREAK_ROOM_1_DAYLIGHT,BREAK_ROOM_1,BREAK_ROOM_1_WINDOW_3,BREAK_ROOM_1_REFERENCEPOINT1,0.0000
 Sky Daylight Factors,Clear Sky,01/01,BREAK_ROOM_1_DAYLIGHT,BREAK_ROOM_1,BREAK_ROOM_1_WINDOW_4,BREAK_ROOM_1_REFERENCEPOINT1,0.0000
 Sky Daylight Factors,Clear Turbid Sky,01/01,BREAK_ROOM_1_DAYLIGHT,BREAK_ROOM_1,BREAK_ROOM_1_WINDOW_4,BREAK_ROOM_1_REFERENCEPOINT1,0.0000
 Sky Daylight Factors,Intermediate Sky,01/01,BREAK_ROOM_1_DAYLIGHT,BREAK_ROOM_1,BREAK_ROOM_1_WINDOW_4,BREAK_ROOM_1_REFERENCEPOINT1,0.0000
 Sky Daylight Factors,Overcast Sky,01/01,BREAK_ROOM_1_DAYLIGHT,BREAK_ROOM_1,BREAK_ROOM_1_WINDOW_4,BREAK_ROOM_1_REFERENCEPOINT1,0.0000
 Sky Daylight Factors,Clear Sky,01/01,LOBBY_2_DAYLIGHT,LOBBY_2,LOBBY_2_WINDOW_3,LOBBY_2_REFERENCEPOINT1,1.2066E-006
 Sky Daylight Factors,Clear Turbid Sky,01/01,LOBBY_2_DAYLIGHT,LOBBY_2,LOBBY_2_WINDOW_3,LOBBY_2_REFERENCEPOINT1,1.0651E-006
 Sky Daylight Factors,Intermediate Sky,01/01,LOBBY_2_DAYLIGHT,LOBBY_2,LOBBY_2_WINDOW_3,LOBBY_2_REFERENCEPOINT1,1.9332E-006
 Sky Daylight Factors,Overcast Sky,01/01,LOBBY_2_DAYLIGHT,LOBBY_2,LOBBY_2_WINDOW_3,LOBBY_2_REFERENCEPOINT1,2.8461E-006
 Sky Daylight Factors,Clear Sky,01/01,LOBBY_2_DAYLIGHT,LOBBY_2,LOBBY_2_WINDOW_4,LOBBY_2_REFERENCEPOINT1,8.0203E-007
 Sky Daylight Factors,Clear Turbid Sky,01/01,LOBBY_2_DAYLIGHT,LOBBY_2,LOBBY_2_WINDOW_4,LOBBY_2_REFERENCEPOINT1,7.7091E-007
 Sky Daylight Factors,Intermediate Sky,01/01,LOBBY_2_DAYLIGHT,LOBBY_2,LOBBY_2_WINDOW_4,LOBBY_2_REFERENCEPOINT1,1.1148E-006
 Sky Daylight Factors,Overcast Sky,01/01,LOBBY_2_DAYLIGHT,LOBBY_2,LOBBY_2_WINDOW_4,LOBBY_2_REFERENCEPOINT1,1.6373E-006
 Sky Daylight Factors,Clear Sky,01/01,LOBBY_2_DAYLIGHT,LOBBY_2,LOBBY_2_WINDOW_5,LOBBY_2_REFERENCEPOINT1,4.9875E-007
 Sky Daylight Factors,Clear Turbid Sky,01/01,LOBBY_2_DAYLIGHT,LOBBY_2,LOBBY_2_WINDOW_5,LOBBY_2_REFERENCEPOINT1,4.4745E-007
 Sky Daylight Factors,Intermediate Sky,01/01,LOBBY_2_DAYLIGHT,LOBBY_2,LOBBY_2_WINDOW_5,LOBBY_2_REFERENCEPOINT1,7.8754E-007
 Sky Daylight Factors,Overcast Sky,01/01,LOBBY_2_DAYLIGHT,LOBBY_2,LOBBY_2_WINDOW_5,LOBBY_2_REFERENCEPOINT1,1.2719E-006
 Sky Daylight Factors,Clear Sky,01/01,LOBBY_2_DAYLIGHT,LOBBY_2,LOBBY_2_WINDOW_8,LOBBY_2_REFERENCEPOINT1,6.5253E-007
 Sky Daylight Factors,Clear Turbid Sky,01/01,LOBBY_2_DAYLIGHT,LOBBY_2,LOBBY_2_WINDOW_8,LOBBY_2_REFERENCEPOINT1,6.2727E-007
 Sky Daylight Factors,Intermediate Sky,01/01,LOBBY_2_DAYLIGHT,LOBBY_2,LOBBY_2_WINDOW_8,LOBBY_2_REFERENCEPOINT1,9.0693E-007
 Sky Daylight Factors,Overcast Sky,01/01,LOBBY_2_DAYLIGHT,LOBBY_2,LOBBY_2_WINDOW_8,LOBBY_2_REFERENCEPOINT1,1.3317E-006
 Sky Daylight Factors,Clear Sky,01/01,CONFERENCE_2_DAYLIGHT,CONFERENCE_2,CONFERENCE_2_WINDOW_1,CONFERENCE_2_REFERENCEPOINT1,1.1322E-006
 Sky Daylight Factors,Clear Turbid Sky,01/01,CONFERENCE_2_DAYLIGHT,CONFERENCE_2,CONFERENCE_2_WINDOW_1,CONFERENCE_2_REFERENCEPOINT1,9.9935E-007
 Sky Daylight Factors,Intermediate Sky,01/01,CONFERENCE_2_DAYLIGHT,CONFERENCE_2,CONFERENCE_2_WINDOW_1,CONFERENCE_2_REFERENCEPOINT1,1.8139E-006
 Sky Daylight Factors,Overcast Sky,01/01,CONFERENCE_2_DAYLIGHT,CONFERENCE_2,CONFERENCE_2_WINDOW_1,CONFERENCE_2_REFERENCEPOINT1,2.6705E-006
 Sky Daylight Factors,Clear Sky,01/01,CONFERENCE_2_DAYLIGHT,CONFERENCE_2,CONFERENCE_2_WINDOW_2,CONFERENCE_2_REFERENCEPOINT1,0.0000
 Sky Daylight Factors,Clear Turbid Sky,01/01,CONFERENCE_2_DAYLIGHT,CONFERENCE_2,CONFERENCE_2_WINDOW_2,CONFERENCE_2_REFERENCEPOINT1,0.0000
 Sky Daylight Factors,Intermediate Sky,01/01,CONFERENCE_2_DAYLIGHT,CONFERENCE_2,CONFERENCE_2_WINDOW_2,CONFERENCE_2_REFERENCEPOINT1,0.0000
 Sky Daylight Factors,Overcast Sky,01/01,CONFERENCE_2_DAYLIGHT,CONFERENCE_2,CONFERENCE_2_WINDOW_2,CONFERENCE_2_REFERENCEPOINT1,0.0000
 Sky Daylight Factors,Clear Sky,01/01,CONFERENCE_2_DAYLIGHT,CONFERENCE_2,CONFERENCE_2_WINDOW_3,CONFERENCE_2_REFERENCEPOINT1,4.6782E-007
 Sky Daylight Factors,Clear Turbid Sky,01/01,CONFERENCE_2_DAYLIGHT,CONFERENCE_2,CONFERENCE_2_WINDOW_3,CONFERENCE_2_REFERENCEPOINT1,4.1970E-007
 Sky Daylight Factors,Intermediate Sky,01/01,CONFERENCE_2_DAYLIGHT,CONFERENCE_2,CONFERENCE_2_WINDOW_3,CONFERENCE_2_REFERENCEPOINT1,7.3870E-007
 Sky Daylight Factors,Overcast Sky,01/01,CONFERENCE_2_DAYLIGHT,CONFERENCE_2,CONFERENCE_2_WINDOW_3,CONFERENCE_2_REFERENCEPOINT1,1.1930E-006
 Sky Daylight Factors,Clear Sky,01/01,CONFERENCE_2_DAYLIGHT,CONFERENCE_2,CONFERENCE_2_WINDOW_4,CONFERENCE_2_REFERENCEPOINT1,0.0000
 Sky Daylight Factors,Clear Turbid Sky,01/01,CONFERENCE_2_DAYLIGHT,CONFERENCE_2,CONFERENCE_2_WINDOW_4,CONFERENCE_2_REFERENCEPOINT1,0.0000
 Sky Daylight Factors,Intermediate Sky,01/01,CONFERENCE_2_DAYLIGHT,CONFERENCE_2,CONFERENCE_2_WINDOW_4,CONFERENCE_2_REFERENCEPOINT1,0.0000
 Sky Daylight Factors,Overcast Sky,01/01,CONFERENCE_2_DAYLIGHT,CONFERENCE_2,CONFERENCE_2_WINDOW_4,CONFERENCE_2_REFERENCEPOINT1,0.0000
 Sky Daylight Factors,Clear Sky,01/01,BREAK_ROOM_2_DAYLIGHT,BREAK_ROOM_2,BREAK_ROOM_2_WINDOW_1,BREAK_ROOM_2_REFERENCEPOINT1,0.0000
 Sky Daylight Factors,Clear Turbid Sky,01/01,BREAK_ROOM_2_DAYLIGHT,BREAK_ROOM_2,BREAK_ROOM_2_WINDOW_1,BREAK_ROOM_2_REFERENCEPOINT1,0.0000
 Sky Daylight Factors,Intermediate Sky,01/01,BREAK_ROOM_2_DAYLIGHT,BREAK_ROOM_2,BREAK_ROOM_2_WINDOW_1,BREAK_ROOM_2_REFERENCEPOINT1,0.0000
 Sky Daylight Factors,Overcast Sky,01/01,BREAK_ROOM_2_DAYLIGHT,BREAK_ROOM_2,BREAK_ROOM_2_WINDOW_1,BREAK_ROOM_2_REFERENCEPOINT1,0.0000
 Sky Daylight Factors,Clear Sky,01/01,BREAK_ROOM_2_DAYLIGHT,BREAK_ROOM_2,BREAK_ROOM_2_WINDOW_2,BREAK_ROOM_2_REFERENCEPOINT1,0.0000
 Sky Daylight Factors,Clear Turbid Sky,01/01,BREAK_ROOM_2_DAYLIGHT,BREAK_ROOM_2,BREAK_ROOM_2_WINDOW_2,BREAK_ROOM_2_REFERENCEPOINT1,0.0000
 Sky Daylight Factors,Intermediate Sky,01/01,BREAK_ROOM_2_DAYLIGHT,BREAK_ROOM_2,BREAK_ROOM_2_WINDOW_2,BREAK_ROOM_2_REFERENCEPOINT1,0.0000
 Sky Daylight Factors,Overcast Sky,01/01,BREAK_ROOM_2_DAYLIGHT,BREAK_ROOM_2,BREAK_ROOM_2_WINDOW_2,BREAK_ROOM_2_REFERENCEPOINT1,0.0000
 Sky Daylight Factors,Clear Sky,01/01,BREAK_ROOM_2_DAYLIGHT,BREAK_ROOM_2,BREAK_ROOM_2_WINDOW_3,BREAK_ROOM_2_REFERENCEPOINT1,0.0000
 Sky Daylight Factors,Clear Turbid Sky,01/01,BREAK_ROOM_2_DAYLIGHT,BREAK_ROOM_2,BREAK_ROOM_2_WINDOW_3,BREAK_ROOM_2_REFERENCEPOINT1,0.0000
 Sky Daylight Factors,Intermediate Sky,01/01,BREAK_ROOM_2_DAYLIGHT,BREAK_ROOM_2,BREAK_ROOM_2_WINDOW_3,BREAK_ROOM_2_REFERENCEPOINT1,0.0000
 Sky Daylight Factors,Overcast Sky,01/01,BREAK_ROOM_2_DAYLIGHT,BREAK_ROOM_2,BREAK_ROOM_2_WINDOW_3,BREAK_ROOM_2_REFERENCEPOINT1,0.0000
 Sky Daylight Factors,Clear Sky,01/01,BREAK_ROOM_2_DAYLIGHT,BREAK_ROOM_2,BREAK_ROOM_2_WINDOW_4,BREAK_ROOM_2_REFERENCEPOINT1,7.8845E-007
 Sky Daylight Factors,Clear Turbid Sky,01/01,BREAK_ROOM_2_DAYLIGHT,BREAK_ROOM_2,BREAK_ROOM_2_WINDOW_4,BREAK_ROOM_2_REFERENCEPOINT1,7.5792E-007
 Sky Daylight Factors,Intermediate Sky,01/01,BREAK_ROOM_2_DAYLIGHT,BREAK_ROOM_2,BREAK_ROOM_2_WINDOW_4,BREAK_ROOM_2_REFERENCEPOINT1,1.0958E-006
 Sky Daylight Factors,Overcast Sky,01/01,BREAK_ROOM_2_DAYLIGHT,BREAK_ROOM_2,BREAK_ROOM_2_WINDOW_4,BREAK_ROOM_2_REFERENCEPOINT1,1.6090E-006
Environment:WarmupDays,  6
! <Warmup Convergence Information>,Zone Name,Environment Type/Name,Average Warmup Temperature Difference {deltaC},Std Dev Warmup Temperature Difference {deltaC},Max Temperature Pass/Fail Convergence,Min Temperature Pass/Fail Convergence,Average Warmup Load Difference {W},Std Dev Warmup Load Difference {W},Heating Load Pass/Fail Convergence,Cooling Load Pass/Fail Convergence
 Warmup Convergence Information,LOBBY_0,RunPeriod: YEAR ROUND RUN PERIOD,0.1646805252,0.2980934841,Pass,Pass,7.4499496935E-003,1.2404383612E-002,Pass,Pass
 Warmup Convergence Information,CONFERENCE_0,RunPeriod: YEAR ROUND RUN PERIOD,0.1666500778,0.3006603267,Pass,Pass,7.5953695273E-003,1.2560020042E-002,Pass,Pass
 Warmup Convergence Information,BREAK_ROOM_0,RunPeriod: YEAR ROUND RUN PERIOD,0.1696212316,0.2975051702,Pass,Pass,7.8159317546E-003,1.2496536853E-002,Pass,Pass
 Warmup Convergence Information,MECHANICAL_0,RunPeriod: YEAR ROUND RUN PERIOD,0.1670279697,0.2930010131,Pass,Pass,7.4913900445E-003,1.2117637185E-002,Pass,Pass
 Warmup Convergence Information,LOBBY_1,RunPeriod: YEAR ROUND RUN PERIOD,0.1700824375,0.3025179956,Pass,Pass,7.7573227234E-003,1.2660126548E-002,Pass,Pass
 Warmup Convergence Information,CONFERENCE_1,RunPeriod: YEAR ROUND RUN PERIOD,0.1689255881,0.3041453269,Pass,Pass,7.7241988415E-003,1.2774206151E-002,Pass,Pass
 Warmup Convergence Information,BREAK_ROOM_1,RunPeriod: YEAR ROUND RUN PERIOD,0.1779078312,0.2809203869,Pass,Pass,8.1623470710E-003,1.1835577166E-002,Pass,Pass
 Warmup Convergence Information,MECHANICAL_1,RunPeriod: YEAR ROUND RUN PERIOD,0.1646768526,0.2861226739,Pass,Pass,7.3393231408E-003,1.1722588481E-002,Pass,Pass
 Warmup Convergence Information,LOBBY_2,RunPeriod: YEAR ROUND RUN PERIOD,0.1702169249,0.2957626468,Pass,Pass,7.7700986666E-003,1.2382695576E-002,Pass,Pass
 Warmup Convergence Information,CONFERENCE_2,RunPeriod: YEAR ROUND RUN PERIOD,0.1715865057,0.3013847337,Pass,Pass,7.8715670860E-003,1.2655745303E-002,Pass,Pass
 Warmup Convergence Information,BREAK_ROOM_2,RunPeriod: YEAR ROUND RUN PERIOD,0.1730845234,0.3027717241,Pass,Pass,8.0103224411E-003,1.2806964502E-002,Pass,Pass
 Warmup Convergence Information,MECHANICAL_2,RunPeriod: YEAR ROUND RUN PERIOD,0.1754394353,0.2965130030,Pass,Pass,8.0152107508E-003,1.2388528106E-002,Pass,Pass
! <Program Control Information:Threads/Parallel Sims>, Threading Supported,Maximum Number of Threads, Env Set Threads (OMP_NUM_THREADS), EP Env Set Threads (EP_OMP_NUM_THREADS), IDF Set Threads, Number of Threads Used (Interior Radiant Exchange), Number Nominal Surfaces, Number Parallel Sims
Program Control:Threads/Parallel Sims, No,1, N/A, N/A, N/A, N/A, N/A, N/A
End of Data
