Program Version,EnergyPlus, Version 24.2.0-94a887817b, YMD=2025.11.03 15:08,
   ** Warning ** Site:GroundTemperature:BuildingSurface: Some values fall outside the range of 15-25C.
   **   ~~~   ** These values may be inappropriate.  Please consult the Input Output Reference for more details.
   ** Warning ** Weather file location will be used rather than entered (IDF) Location object.
   **   ~~~   ** ..Location object=SITE
   **   ~~~   ** ..Weather File Location=Chicago Ohare Intl Ap IL USA TMY3 WMO#=725300
   **   ~~~   ** ..due to location differences, Latitude difference=[9.56E-002] degrees, Longitude difference=[0.28] degrees.
   **   ~~~   ** ..Time Zone difference=[2.0] hour(s), Elevation difference=[1910.00] percent, [191.00] meters.
   ** Warning ** ProcessScheduleInput: Schedule:Compact="BREAK_ROOM_LIGHTING" has missing day types in Through=12/31
   **   ~~~   ** Last "For" field=FOR: WEEKENDS
   **   ~~~   ** Missing day types="Holiday","SummerDesignDay","WinterDesignDay","CustomDay1","CustomDay2"
   **   ~~~   ** Missing day types will have 0.0 as Schedule Values
   ** Warning ** ProcessScheduleInput: Schedule:Compact="BREAK_ROOM_EQUIPMENT" has missing day types in Through=12/31
   **   ~~~   ** Last "For" field=FOR: WEEKENDS
   **   ~~~   ** Missing day types="Holiday","SummerDesignDay","WinterDesignDay","CustomDay1","CustomDay2"
   **   ~~~   ** Missing day types will have 0.0 as Schedule Values
   ** Warning ** ProcessScheduleInput: Schedule:Compact="CONFERENCE_OCCUPANCY" has missing day types in Through=12/31
   **   ~~~   ** Last "For" field=FOR: WEEKENDS
   **   ~~~   ** Missing day types="Holiday","SummerDesignDay","WinterDesignDay","CustomDay1","CustomDay2"
   **   ~~~   ** Missing day types will have 0.0 as Schedule Values
   ** Warning ** ProcessScheduleInput: Schedule:Compact="CONFERENCE_LIGHTING" has missing day types in Through=12/31
   **   ~~~   ** Last "For" field=FOR: WEEKENDS
   **   ~~~   ** Missing day types="Holiday","SummerDesignDay","WinterDesignDay","CustomDay1","CustomDay2"
   **   ~~~   ** Missing day types will have 0.0 as Schedule Values
   ** Warning ** ProcessScheduleInput: Schedule:Compact="CONFERENCE_EQUIPMENT" has missing day types in Through=12/31
   **   ~~~   ** Last "For" field=FOR: WEEKENDS
   **   ~~~   ** Missing day types="Holiday","SummerDesignDay","WinterDesignDay","CustomDay1","CustomDay2"
   **   ~~~   ** Missing day types will have 0.0 as Schedule Values
   ** Warning ** ProcessScheduleInput: Schedule:Compact="LOBBY_LIGHTING" has missing day types in Through=12/31
   **   ~~~   ** Last "For" field=FOR: WEEKENDS
   **   ~~~   ** Missing day types="Holiday","SummerDesignDay","WinterDesignDay","CustomDay1","CustomDay2"
   **   ~~~   ** Missing day types will have 0.0 as Schedule Values
   ** Warning ** ProcessScheduleInput: Schedule:Compact="LOBBY_EQUIPMENT" has missing day types in Through=12/31
   **   ~~~   ** Last "For" field=FOR: WEEKENDS
   **   ~~~   ** Missing day types="Holiday","SummerDesignDay","WinterDesignDay","CustomDay1","CustomDay2"
   **   ~~~   ** Missing day types will have 0.0 as Schedule Values
   ** Warning ** ProcessScheduleInput: Schedule:Compact="MECHANICAL_LIGHTING" has missing day types in Through=12/31
   **   ~~~   ** Last "For" field=FOR: WEEKENDS
   **   ~~~   ** Missing day types="Holiday","SummerDesignDay","WinterDesignDay","CustomDay1","CustomDay2"
   **   ~~~   ** Missing day types will have 0.0 as Schedule Values
   ** Warning ** ProcessScheduleInput: Schedule:Compact="MECHANICAL_EQUIPMENT" has missing day types in Through=12/31
   **   ~~~   ** Last "For" field=FOR: WEEKENDS
   **   ~~~   ** Missing day types="Holiday","SummerDesignDay","WinterDesignDay","CustomDay1","CustomDay2"
   **   ~~~   ** Missing day types will have 0.0 as Schedule Values
   ** Warning ** GetVertices: Floor is upside down! Tilt angle=[0.0], should be near 180, Surface="LOBBY_0_FLOOR", in Zone="LOBBY_0".
   **   ~~~   ** Automatic fix is attempted.
   ** Warning ** GetVertices: Roof/Ceiling is upside down! Tilt angle=[180.0], should be near 0, Surface="LOBBY_0_CEILING", in Zone="LOBBY_0".
   **   ~~~   ** Automatic fix is attempted.
   ** Warning ** GetVertices: Floor is upside down! Tilt angle=[0.0], should be near 180, Surface="CONFERENCE_0_FLOOR", in Zone="CONFERENCE_0".
   **   ~~~   ** Automatic fix is attempted.
   ** Warning ** GetVertices: Roof/Ceiling is upside down! Tilt angle=[180.0], should be near 0, Surface="CONFERENCE_0_CEILING", in Zone="CONFERENCE_0".
   **   ~~~   ** Automatic fix is attempted.
   ** Warning ** GetVertices: Floor is upside down! Tilt angle=[0.0], should be near 180, Surface="BREAK_ROOM_0_FLOOR", in Zone="BREAK_ROOM_0".
   **   ~~~   ** Automatic fix is attempted.
   ** Warning ** GetVertices: Roof/Ceiling is upside down! Tilt angle=[180.0], should be near 0, Surface="BREAK_ROOM_0_CEILING", in Zone="BREAK_ROOM_0".
   **   ~~~   ** Automatic fix is attempted.
   ** Warning ** GetVertices: Floor is upside down! Tilt angle=[0.0], should be near 180, Surface="MECHANICAL_0_FLOOR", in Zone="MECHANICAL_0".
   **   ~~~   ** Automatic fix is attempted.
   ** Warning ** GetVertices: Roof/Ceiling is upside down! Tilt angle=[180.0], should be near 0, Surface="MECHANICAL_0_CEILING", in Zone="MECHANICAL_0".
   **   ~~~   ** Automatic fix is attempted.
   ** Warning ** GetVertices: Floor is upside down! Tilt angle=[0.0], should be near 180, Surface="LOBBY_1_FLOOR", in Zone="LOBBY_1".
   **   ~~~   ** Automatic fix is attempted.
   ** Warning ** GetVertices: Roof/Ceiling is upside down! Tilt angle=[180.0], should be near 0, Surface="LOBBY_1_CEILING", in Zone="LOBBY_1".
   **   ~~~   ** Automatic fix is attempted.
   ** Warning ** GetVertices: Floor is upside down! Tilt angle=[0.0], should be near 180, Surface="CONFERENCE_1_FLOOR", in Zone="CONFERENCE_1".
   **   ~~~   ** Automatic fix is attempted.
   ** Warning ** GetVertices: Roof/Ceiling is upside down! Tilt angle=[180.0], should be near 0, Surface="CONFERENCE_1_CEILING", in Zone="CONFERENCE_1".
   **   ~~~   ** Automatic fix is attempted.
   ** Warning ** GetVertices: Floor is upside down! Tilt angle=[0.0], should be near 180, Surface="BREAK_ROOM_1_FLOOR", in Zone="BREAK_ROOM_1".
   **   ~~~   ** Automatic fix is attempted.
   ** Warning ** GetVertices: Roof/Ceiling is upside down! Tilt angle=[180.0], should be near 0, Surface="BREAK_ROOM_1_CEILING", in Zone="BREAK_ROOM_1".
   **   ~~~   ** Automatic fix is attempted.
   ** Warning ** GetVertices: Floor is upside down! Tilt angle=[0.0], should be near 180, Surface="MECHANICAL_1_FLOOR", in Zone="MECHANICAL_1".
   **   ~~~   ** Automatic fix is attempted.
   ** Warning ** GetVertices: Roof/Ceiling is upside down! Tilt angle=[180.0], should be near 0, Surface="MECHANICAL_1_CEILING", in Zone="MECHANICAL_1".
   **   ~~~   ** Automatic fix is attempted.
   ** Warning ** GetVertices: Floor is upside down! Tilt angle=[0.0], should be near 180, Surface="LOBBY_2_FLOOR", in Zone="LOBBY_2".
   **   ~~~   ** Automatic fix is attempted.
   ** Warning ** GetVertices: Roof/Ceiling is upside down! Tilt angle=[180.0], should be near 0, Surface="LOBBY_2_CEILING", in Zone="LOBBY_2".
   **   ~~~   ** Automatic fix is attempted.
   ** Warning ** GetVertices: Floor is upside down! Tilt angle=[0.0], should be near 180, Surface="CONFERENCE_2_FLOOR", in Zone="CONFERENCE_2".
   **   ~~~   ** Automatic fix is attempted.
   ** Warning ** GetVertices: Roof/Ceiling is upside down! Tilt angle=[180.0], should be near 0, Surface="CONFERENCE_2_CEILING", in Zone="CONFERENCE_2".
   **   ~~~   ** Automatic fix is attempted.
   ** Warning ** GetVertices: Floor is upside down! Tilt angle=[0.0], should be near 180, Surface="BREAK_ROOM_2_FLOOR", in Zone="BREAK_ROOM_2".
   **   ~~~   ** Automatic fix is attempted.
   ** Warning ** GetVertices: Roof/Ceiling is upside down! Tilt angle=[180.0], should be near 0, Surface="BREAK_ROOM_2_CEILING", in Zone="BREAK_ROOM_2".
   **   ~~~   ** Automatic fix is attempted.
   ** Warning ** GetVertices: Floor is upside down! Tilt angle=[0.0], should be near 180, Surface="MECHANICAL_2_FLOOR", in Zone="MECHANICAL_2".
   **   ~~~   ** Automatic fix is attempted.
   ** Warning ** GetVertices: Roof/Ceiling is upside down! Tilt angle=[180.0], should be near 0, Surface="MECHANICAL_2_CEILING", in Zone="MECHANICAL_2".
   **   ~~~   ** Automatic fix is attempted.
   ** Warning ** Indicated Zone Volume <= 0.0 for Zone=LOBBY_0
   **   ~~~   ** The calculated Zone Volume was=-127.04
   **   ~~~   ** The simulation will continue with the Zone Volume set to 10.0 m3. 
   **   ~~~   ** ...use Output:Diagnostics,DisplayExtraWarnings; to show more details on individual zones.
   ** Warning ** Indicated Zone Volume <= 0.0 for Zone=CONFERENCE_0
   **   ~~~   ** The calculated Zone Volume was=-77.44
   **   ~~~   ** The simulation will continue with the Zone Volume set to 10.0 m3. 
   **   ~~~   ** ...use Output:Diagnostics,DisplayExtraWarnings; to show more details on individual zones.
   ** Warning ** Indicated Zone Volume <= 0.0 for Zone=BREAK_ROOM_0
   **   ~~~   ** The calculated Zone Volume was=-62.99
   **   ~~~   ** The simulation will continue with the Zone Volume set to 10.0 m3. 
   **   ~~~   ** ...use Output:Diagnostics,DisplayExtraWarnings; to show more details on individual zones.
   ** Warning ** Indicated Zone Volume <= 0.0 for Zone=MECHANICAL_0
   **   ~~~   ** The calculated Zone Volume was=-31.61
   **   ~~~   ** The simulation will continue with the Zone Volume set to 10.0 m3. 
   **   ~~~   ** ...use Output:Diagnostics,DisplayExtraWarnings; to show more details on individual zones.
   ** Warning ** Indicated Zone Volume <= 0.0 for Zone=LOBBY_1
   **   ~~~   ** The calculated Zone Volume was=-139.98
   **   ~~~   ** The simulation will continue with the Zone Volume set to 10.0 m3. 
   **   ~~~   ** ...use Output:Diagnostics,DisplayExtraWarnings; to show more details on individual zones.
   ** Warning ** Indicated Zone Volume <= 0.0 for Zone=CONFERENCE_1
   **   ~~~   ** The calculated Zone Volume was=-98.94
   **   ~~~   ** The simulation will continue with the Zone Volume set to 10.0 m3. 
   **   ~~~   ** ...use Output:Diagnostics,DisplayExtraWarnings; to show more details on individual zones.
   ** Warning ** Indicated Zone Volume <= 0.0 for Zone=BREAK_ROOM_1
   **   ~~~   ** The calculated Zone Volume was=-20.19
   **   ~~~   ** The simulation will continue with the Zone Volume set to 10.0 m3. 
   **   ~~~   ** ...use Output:Diagnostics,DisplayExtraWarnings; to show more details on individual zones.
   ** Warning ** Indicated Zone Volume <= 0.0 for Zone=MECHANICAL_1
   **   ~~~   ** The calculated Zone Volume was=-49.77
   **   ~~~   ** The simulation will continue with the Zone Volume set to 10.0 m3. 
   **   ~~~   ** ...use Output:Diagnostics,DisplayExtraWarnings; to show more details on individual zones.
   ** Warning ** Indicated Zone Volume <= 0.0 for Zone=LOBBY_2
   **   ~~~   ** The calculated Zone Volume was=-74.66
   **   ~~~   ** The simulation will continue with the Zone Volume set to 10.0 m3. 
   **   ~~~   ** ...use Output:Diagnostics,DisplayExtraWarnings; to show more details on individual zones.
   ** Warning ** Indicated Zone Volume <= 0.0 for Zone=CONFERENCE_2
   **   ~~~   ** The calculated Zone Volume was=-81.55
   **   ~~~   ** The simulation will continue with the Zone Volume set to 10.0 m3. 
   **   ~~~   ** ...use Output:Diagnostics,DisplayExtraWarnings; to show more details on individual zones.
   ** Warning ** Indicated Zone Volume <= 0.0 for Zone=BREAK_ROOM_2
   **   ~~~   ** The calculated Zone Volume was=-74.27
   **   ~~~   ** The simulation will continue with the Zone Volume set to 10.0 m3. 
   **   ~~~   ** ...use Output:Diagnostics,DisplayExtraWarnings; to show more details on individual zones.
   ** Warning ** Indicated Zone Volume <= 0.0 for Zone=MECHANICAL_2
   **   ~~~   ** The calculated Zone Volume was=-74.30
   **   ~~~   ** The simulation will continue with the Zone Volume set to 10.0 m3. 
   **   ~~~   ** ...use Output:Diagnostics,DisplayExtraWarnings; to show more details on individual zones.
   ** Severe  ** Problem in interior solar distribution calculation (CHKBKS)
   **   ~~~   **    Solar Distribution = FullInteriorExterior will not work in Zone=LOBBY_0
   **   ~~~   **    because one or more of vertices, such as Vertex 2 of back surface=LOBBY_0_WALL_4, is in front of receiving surface=LOBBY_0_WALL_1
   **   ~~~   **    (Dot Product indicator=            143.2577)
   **   ~~~   **    Check surface geometry; if OK, use Solar Distribution = FullExterior instead. Use Output:Diagnostics, DisplayExtraWarnings; for more details.
   ** Severe  ** Problem in interior solar distribution calculation (CHKBKS)
   **   ~~~   **    Solar Distribution = FullInteriorExterior will not work in Zone=LOBBY_0
   **   ~~~   **    because one or more of vertices, such as Vertex 1 of back surface=LOBBY_0_WALL_5, is in front of receiving surface=LOBBY_0_WALL_1
   **   ~~~   **    (Dot Product indicator=            143.2577)
   **   ~~~   **    Check surface geometry; if OK, use Solar Distribution = FullExterior instead. Use Output:Diagnostics, DisplayExtraWarnings; for more details.
   ** Severe  ** Problem in interior solar distribution calculation (CHKBKS)
   **   ~~~   **    Solar Distribution = FullInteriorExterior will not work in Zone=LOBBY_0
   **   ~~~   **    because one or more of vertices, such as Vertex 1 of back surface=LOBBY_0_WALL_6, is in front of receiving surface=LOBBY_0_WALL_1
   **   ~~~   **    (Dot Product indicator=            143.2577)
   **   ~~~   **    Check surface geometry; if OK, use Solar Distribution = FullExterior instead. Use Output:Diagnostics, DisplayExtraWarnings; for more details.
   ** Severe  ** Problem in interior solar distribution calculation (CHKBKS)
   **   ~~~   **    Solar Distribution = FullInteriorExterior will not work in Zone=LOBBY_0
   **   ~~~   **    because one or more of vertices, such as Vertex 5 of back surface=LOBBY_0_FLOOR, is in front of receiving surface=LOBBY_0_WALL_1
   **   ~~~   **    (Dot Product indicator=            143.2577)
   **   ~~~   **    Check surface geometry; if OK, use Solar Distribution = FullExterior instead. Use Output:Diagnostics, DisplayExtraWarnings; for more details.
   ** Severe  ** Problem in interior solar distribution calculation (CHKBKS)
   **   ~~~   **    Solar Distribution = FullInteriorExterior will not work in Zone=LOBBY_0
   **   ~~~   **    because one or more of vertices, such as Vertex 3 of back surface=LOBBY_0_CEILING, is in front of receiving surface=LOBBY_0_WALL_1
   **   ~~~   **    (Dot Product indicator=            143.2577)
   **   ~~~   **    Check surface geometry; if OK, use Solar Distribution = FullExterior instead. Use Output:Diagnostics, DisplayExtraWarnings; for more details.
   ** Severe  ** Problem in interior solar distribution calculation (CHKBKS)
   **   ~~~   **    Solar Distribution = FullInteriorExterior will not work in Zone=LOBBY_0
   **   ~~~   **    because one or more of vertices, such as Vertex 1 of back surface=LOBBY_0_WINDOW_4, is in front of receiving surface=LOBBY_0_WALL_1
   **   ~~~   **    (Dot Product indicator=             15.2897)
   **   ~~~   **    Check surface geometry; if OK, use Solar Distribution = FullExterior instead. Use Output:Diagnostics, DisplayExtraWarnings; for more details.
   ** Severe  ** Problem in interior solar distribution calculation (CHKBKS)
   **   ~~~   **    Solar Distribution = FullInteriorExterior will not work in Zone=LOBBY_0
   **   ~~~   **    because one or more of vertices, such as Vertex 1 of back surface=LOBBY_0_WINDOW_5, is in front of receiving surface=LOBBY_0_WALL_1
   **   ~~~   **    (Dot Product indicator=            143.9670)
   **   ~~~   **    Check surface geometry; if OK, use Solar Distribution = FullExterior instead. Use Output:Diagnostics, DisplayExtraWarnings; for more details.
   ** Severe  ** Problem in interior solar distribution calculation (CHKBKS)
   **   ~~~   **    Solar Distribution = FullInteriorExterior will not work in Zone=LOBBY_0
   **   ~~~   **    because one or more of vertices, such as Vertex 1 of back surface=LOBBY_0_WINDOW_6, is in front of receiving surface=LOBBY_0_WALL_1
   **   ~~~   **    (Dot Product indicator=            120.6758)
   **   ~~~   **    Check surface geometry; if OK, use Solar Distribution = FullExterior instead. Use Output:Diagnostics, DisplayExtraWarnings; for more details.
   ** Severe  ** Problem in interior solar distribution calculation (CHKBKS)
   **   ~~~   **    Solar Distribution = FullInteriorExterior will not work in Zone=LOBBY_0
   **   ~~~   **    because one or more of vertices, such as Vertex 1 of back surface=LOBBY_0_WALL_1, is in front of receiving surface=LOBBY_0_WALL_4
   **   ~~~   **    (Dot Product indicator=            165.0873)
   **   ~~~   **    Check surface geometry; if OK, use Solar Distribution = FullExterior instead. Use Output:Diagnostics, DisplayExtraWarnings; for more details.
   ** Severe  ** Problem in interior solar distribution calculation (CHKBKS)
   **   ~~~   **    Solar Distribution = FullInteriorExterior will not work in Zone=LOBBY_0
   **   ~~~   **    because one or more of vertices, such as Vertex 1 of back surface=LOBBY_0_WALL_2, is in front of receiving surface=LOBBY_0_WALL_4
   **   ~~~   **    (Dot Product indicator=             14.5374)
   **   ~~~   **    Check surface geometry; if OK, use Solar Distribution = FullExterior instead. Use Output:Diagnostics, DisplayExtraWarnings; for more details.
   ** Severe  ** Problem in interior solar distribution calculation (CHKBKS)
   **   ~~~   **    Solar Distribution = FullInteriorExterior will not work in Zone=LOBBY_0
   **   ~~~   **    because one or more of vertices, such as Vertex 1 of back surface=LOBBY_0_WALL_3, is in front of receiving surface=LOBBY_0_WALL_4
   **   ~~~   **    (Dot Product indicator=             14.5374)
   **   ~~~   **    Check surface geometry; if OK, use Solar Distribution = FullExterior instead. Use Output:Diagnostics, DisplayExtraWarnings; for more details.
   ** Severe  ** Problem in interior solar distribution calculation (CHKBKS)
   **   ~~~   **    Solar Distribution = FullInteriorExterior will not work in Zone=LOBBY_0
   **   ~~~   **    because one or more of vertices, such as Vertex 2 of back surface=LOBBY_0_WALL_5, is in front of receiving surface=LOBBY_0_WALL_4
   **   ~~~   **    (Dot Product indicator=            197.8501)
   **   ~~~   **    Check surface geometry; if OK, use Solar Distribution = FullExterior instead. Use Output:Diagnostics, DisplayExtraWarnings; for more details.
   ** Severe  ** Problem in interior solar distribution calculation (CHKBKS)
   **   ~~~   **    Solar Distribution = FullInteriorExterior will not work in Zone=LOBBY_0
   **   ~~~   **    because one or more of vertices, such as Vertex 1 of back surface=LOBBY_0_WALL_6, is in front of receiving surface=LOBBY_0_WALL_4
   **   ~~~   **    (Dot Product indicator=            197.8501)
   **   ~~~   **    Check surface geometry; if OK, use Solar Distribution = FullExterior instead. Use Output:Diagnostics, DisplayExtraWarnings; for more details.
   ** Severe  ** Problem in interior solar distribution calculation (CHKBKS)
   **   ~~~   **    Solar Distribution = FullInteriorExterior will not work in Zone=LOBBY_0
   **   ~~~   **    because one or more of vertices, such as Vertex 1 of back surface=LOBBY_0_WALL_7, is in front of receiving surface=LOBBY_0_WALL_4
   **   ~~~   **    (Dot Product indicator=            197.8501)
   **   ~~~   **    Check surface geometry; if OK, use Solar Distribution = FullExterior instead. Use Output:Diagnostics, DisplayExtraWarnings; for more details.
   ** Severe  ** Problem in interior solar distribution calculation (CHKBKS)
   **   ~~~   **    Solar Distribution = FullInteriorExterior will not work in Zone=LOBBY_0
   **   ~~~   **    because one or more of vertices, such as Vertex 1 of back surface=LOBBY_0_WALL_8, is in front of receiving surface=LOBBY_0_WALL_4
   **   ~~~   **    (Dot Product indicator=            165.0873)
   **   ~~~   **    Check surface geometry; if OK, use Solar Distribution = FullExterior instead. Use Output:Diagnostics, DisplayExtraWarnings; for more details.
   ** Severe  ** Problem in interior solar distribution calculation (CHKBKS)
   **   ~~~   **    Solar Distribution = FullInteriorExterior will not work in Zone=LOBBY_0
   **   ~~~   **    because one or more of vertices, such as Vertex 1 of back surface=LOBBY_0_FLOOR, is in front of receiving surface=LOBBY_0_WALL_4
   **   ~~~   **    (Dot Product indicator=            165.0873)
   **   ~~~   **    Check surface geometry; if OK, use Solar Distribution = FullExterior instead. Use Output:Diagnostics, DisplayExtraWarnings; for more details.
   ** Severe  ** Problem in interior solar distribution calculation (CHKBKS)
   **   ~~~   **    Solar Distribution = FullInteriorExterior will not work in Zone=LOBBY_0
   **   ~~~   **    because one or more of vertices, such as Vertex 1 of back surface=LOBBY_0_CEILING, is in front of receiving surface=LOBBY_0_WALL_4
   **   ~~~   **    (Dot Product indicator=            165.0873)
   **   ~~~   **    Check surface geometry; if OK, use Solar Distribution = FullExterior instead. Use Output:Diagnostics, DisplayExtraWarnings; for more details.
   ** Severe  ** Problem in interior solar distribution calculation (CHKBKS)
   **   ~~~   **    Solar Distribution = FullInteriorExterior will not work in Zone=LOBBY_0
   **   ~~~   **    because one or more of vertices, such as Vertex 1 of back surface=LOBBY_0_WINDOW_1, is in front of receiving surface=LOBBY_0_WALL_4
   **   ~~~   **    (Dot Product indicator=            142.5053)
   **   ~~~   **    Check surface geometry; if OK, use Solar Distribution = FullExterior instead. Use Output:Diagnostics, DisplayExtraWarnings; for more details.
   ** Severe  ** Problem in interior solar distribution calculation (CHKBKS)
   **   ~~~   **    Solar Distribution = FullInteriorExterior will not work in Zone=LOBBY_0
   **   ~~~   **    because one or more of vertices, such as Vertex 1 of back surface=LOBBY_0_WINDOW_5, is in front of receiving surface=LOBBY_0_WALL_4
   **   ~~~   **    (Dot Product indicator=             29.6780)
   **   ~~~   **    Check surface geometry; if OK, use Solar Distribution = FullExterior instead. Use Output:Diagnostics, DisplayExtraWarnings; for more details.
   ** Severe  ** Problem in interior solar distribution calculation (CHKBKS)
   **   ~~~   **    Solar Distribution = FullInteriorExterior will not work in Zone=LOBBY_0
   **   ~~~   **    because one or more of vertices, such as Vertex 1 of back surface=LOBBY_0_WINDOW_6, is in front of receiving surface=LOBBY_0_WALL_4
   **   ~~~   **    (Dot Product indicator=            198.6460)
   **   ~~~   **    Check surface geometry; if OK, use Solar Distribution = FullExterior instead. Use Output:Diagnostics, DisplayExtraWarnings; for more details.
   ** Severe  ** Problem in interior solar distribution calculation (CHKBKS)
   **   ~~~   **    Solar Distribution = FullInteriorExterior will not work in Zone=LOBBY_0
   **   ~~~   **    because one or more of vertices, such as Vertex 1 of back surface=LOBBY_0_WINDOW_7, is in front of receiving surface=LOBBY_0_WALL_4
   **   ~~~   **    (Dot Product indicator=            192.9348)
   **   ~~~   **    Check surface geometry; if OK, use Solar Distribution = FullExterior instead. Use Output:Diagnostics, DisplayExtraWarnings; for more details.
   ** Severe  ** Problem in interior solar distribution calculation (CHKBKS)
   **   ~~~   **    Solar Distribution = FullInteriorExterior will not work in Zone=LOBBY_0
   **   ~~~   **    because one or more of vertices, such as Vertex 1 of back surface=LOBBY_0_WALL_1, is in front of receiving surface=LOBBY_0_WALL_5
   **   ~~~   **    (Dot Product indicator=            188.2667)
   **   ~~~   **    Check surface geometry; if OK, use Solar Distribution = FullExterior instead. Use Output:Diagnostics, DisplayExtraWarnings; for more details.
   ** Severe  ** Problem in interior solar distribution calculation (CHKBKS)
   **   ~~~   **    Solar Distribution = FullInteriorExterior will not work in Zone=LOBBY_0
   **   ~~~   **    because one or more of vertices, such as Vertex 1 of back surface=LOBBY_0_WALL_2, is in front of receiving surface=LOBBY_0_WALL_5
   **   ~~~   **    (Dot Product indicator=            188.2667)
   **   ~~~   **    Check surface geometry; if OK, use Solar Distribution = FullExterior instead. Use Output:Diagnostics, DisplayExtraWarnings; for more details.
   ** Severe  ** Problem in interior solar distribution calculation (CHKBKS)
   **   ~~~   **    Solar Distribution = FullInteriorExterior will not work in Zone=LOBBY_0
   **   ~~~   **    because one or more of vertices, such as Vertex 1 of back surface=LOBBY_0_WALL_3, is in front of receiving surface=LOBBY_0_WALL_5
   **   ~~~   **    (Dot Product indicator=            197.8501)
   **   ~~~   **    Check surface geometry; if OK, use Solar Distribution = FullExterior instead. Use Output:Diagnostics, DisplayExtraWarnings; for more details.
   ** Severe  ** Problem in interior solar distribution calculation (CHKBKS)
   **   ~~~   **    Solar Distribution = FullInteriorExterior will not work in Zone=LOBBY_0
   **   ~~~   **    because one or more of vertices, such as Vertex 1 of back surface=LOBBY_0_WALL_4, is in front of receiving surface=LOBBY_0_WALL_5
   **   ~~~   **    (Dot Product indicator=            197.8501)
   **   ~~~   **    Check surface geometry; if OK, use Solar Distribution = FullExterior instead. Use Output:Diagnostics, DisplayExtraWarnings; for more details.
   ** Severe  ** Problem in interior solar distribution calculation (CHKBKS)
   **   ~~~   **    Solar Distribution = FullInteriorExterior will not work in Zone=LOBBY_0
   **   ~~~   **    because one or more of vertices, such as Vertex 2 of back surface=LOBBY_0_WALL_6, is in front of receiving surface=LOBBY_0_WALL_5
   **   ~~~   **    (Dot Product indicator=            197.8501)
   **   ~~~   **    Check surface geometry; if OK, use Solar Distribution = FullExterior instead. Use Output:Diagnostics, DisplayExtraWarnings; for more details.
   ** Severe  ** Problem in interior solar distribution calculation (CHKBKS)
   **   ~~~   **    Solar Distribution = FullInteriorExterior will not work in Zone=LOBBY_0
   **   ~~~   **    because one or more of vertices, such as Vertex 1 of back surface=LOBBY_0_WALL_7, is in front of receiving surface=LOBBY_0_WALL_5
   **   ~~~   **    (Dot Product indicator=            197.8501)
   **   ~~~   **    Check surface geometry; if OK, use Solar Distribution = FullExterior instead. Use Output:Diagnostics, DisplayExtraWarnings; for more details.
   ** Severe  ** Problem in interior solar distribution calculation (CHKBKS)
   **   ~~~   **    Solar Distribution = FullInteriorExterior will not work in Zone=LOBBY_0
   **   ~~~   **    because one or more of vertices, such as Vertex 1 of back surface=LOBBY_0_WALL_8, is in front of receiving surface=LOBBY_0_WALL_5
   **   ~~~   **    (Dot Product indicator=            197.8501)
   **   ~~~   **    Check surface geometry; if OK, use Solar Distribution = FullExterior instead. Use Output:Diagnostics, DisplayExtraWarnings; for more details.
   ** Severe  ** Problem in interior solar distribution calculation (CHKBKS)
   **   ~~~   **    Solar Distribution = FullInteriorExterior will not work in Zone=LOBBY_0
   **   ~~~   **    because one or more of vertices, such as Vertex 1 of back surface=LOBBY_0_FLOOR, is in front of receiving surface=LOBBY_0_WALL_5
   **   ~~~   **    (Dot Product indicator=            188.2667)
   **   ~~~   **    Check surface geometry; if OK, use Solar Distribution = FullExterior instead. Use Output:Diagnostics, DisplayExtraWarnings; for more details.
   ** Severe  ** Problem in interior solar distribution calculation (CHKBKS)
   **   ~~~   **    Solar Distribution = FullInteriorExterior will not work in Zone=LOBBY_0
   **   ~~~   **    because one or more of vertices, such as Vertex 1 of back surface=LOBBY_0_CEILING, is in front of receiving surface=LOBBY_0_WALL_5
   **   ~~~   **    (Dot Product indicator=            197.8501)
   **   ~~~   **    Check surface geometry; if OK, use Solar Distribution = FullExterior instead. Use Output:Diagnostics, DisplayExtraWarnings; for more details.
   ** Severe  ** Problem in interior solar distribution calculation (CHKBKS)
   **   ~~~   **    Solar Distribution = FullInteriorExterior will not work in Zone=LOBBY_0
   **   ~~~   **    because one or more of vertices, such as Vertex 1 of back surface=LOBBY_0_WINDOW_1, is in front of receiving surface=LOBBY_0_WALL_5
   **   ~~~   **    (Dot Product indicator=            189.1990)
   **   ~~~   **    Check surface geometry; if OK, use Solar Distribution = FullExterior instead. Use Output:Diagnostics, DisplayExtraWarnings; for more details.
   ** Severe  ** Problem in interior solar distribution calculation (CHKBKS)
   **   ~~~   **    Solar Distribution = FullInteriorExterior will not work in Zone=LOBBY_0
   **   ~~~   **    because one or more of vertices, such as Vertex 1 of back surface=LOBBY_0_WINDOW_4, is in front of receiving surface=LOBBY_0_WALL_5
   **   ~~~   **    (Dot Product indicator=            168.1733)
   **   ~~~   **    Check surface geometry; if OK, use Solar Distribution = FullExterior instead. Use Output:Diagnostics, DisplayExtraWarnings; for more details.
   ** Severe  ** Problem in interior solar distribution calculation (CHKBKS)
   **   ~~~   **    Solar Distribution = FullInteriorExterior will not work in Zone=LOBBY_0
   **   ~~~   **    because one or more of vertices, such as Vertex 1 of back surface=LOBBY_0_WINDOW_6, is in front of receiving surface=LOBBY_0_WALL_5
   **   ~~~   **    (Dot Product indicator=             29.6768)
   **   ~~~   **    Check surface geometry; if OK, use Solar Distribution = FullExterior instead. Use Output:Diagnostics, DisplayExtraWarnings; for more details.
   ** Severe  ** Problem in interior solar distribution calculation (CHKBKS)
   **   ~~~   **    Solar Distribution = FullInteriorExterior will not work in Zone=LOBBY_0
   **   ~~~   **    because one or more of vertices, such as Vertex 1 of back surface=LOBBY_0_WINDOW_7, is in front of receiving surface=LOBBY_0_WALL_5
   **   ~~~   **    (Dot Product indicator=            198.7823)
   **   ~~~   **    Check surface geometry; if OK, use Solar Distribution = FullExterior instead. Use Output:Diagnostics, DisplayExtraWarnings; for more details.
   ** Severe  ** Problem in interior solar distribution calculation (CHKBKS)
   **   ~~~   **    Solar Distribution = FullInteriorExterior will not work in Zone=LOBBY_0
   **   ~~~   **    because one or more of vertices, such as Vertex 1 of back surface=LOBBY_0_WALL_1, is in front of receiving surface=LOBBY_0_WALL_6
   **   ~~~   **    (Dot Product indicator=             32.7628)
   **   ~~~   **    Check surface geometry; if OK, use Solar Distribution = FullExterior instead. Use Output:Diagnostics, DisplayExtraWarnings; for more details.
   ** Severe  ** Problem in interior solar distribution calculation (CHKBKS)
   **   ~~~   **    Solar Distribution = FullInteriorExterior will not work in Zone=LOBBY_0
   **   ~~~   **    because one or more of vertices, such as Vertex 1 of back surface=LOBBY_0_WALL_2, is in front of receiving surface=LOBBY_0_WALL_6
   **   ~~~   **    (Dot Product indicator=            183.3127)
   **   ~~~   **    Check surface geometry; if OK, use Solar Distribution = FullExterior instead. Use Output:Diagnostics, DisplayExtraWarnings; for more details.
   ** Severe  ** Problem in interior solar distribution calculation (CHKBKS)
   **   ~~~   **    Solar Distribution = FullInteriorExterior will not work in Zone=LOBBY_0
   **   ~~~   **    because one or more of vertices, such as Vertex 1 of back surface=LOBBY_0_WALL_3, is in front of receiving surface=LOBBY_0_WALL_6
   **   ~~~   **    (Dot Product indicator=            183.3127)
   **   ~~~   **    Check surface geometry; if OK, use Solar Distribution = FullExterior instead. Use Output:Diagnostics, DisplayExtraWarnings; for more details.
   ** Severe  ** Problem in interior solar distribution calculation (CHKBKS)
   **   ~~~   **    Solar Distribution = FullInteriorExterior will not work in Zone=LOBBY_0
   **   ~~~   **    because one or more of vertices, such as Vertex 1 of back surface=LOBBY_0_WALL_4, is in front of receiving surface=LOBBY_0_WALL_6
   **   ~~~   **    (Dot Product indicator=            197.8501)
   **   ~~~   **    Check surface geometry; if OK, use Solar Distribution = FullExterior instead. Use Output:Diagnostics, DisplayExtraWarnings; for more details.
   ** Severe  ** Problem in interior solar distribution calculation (CHKBKS)
   **   ~~~   **    Solar Distribution = FullInteriorExterior will not work in Zone=LOBBY_0
   **   ~~~   **    because one or more of vertices, such as Vertex 1 of back surface=LOBBY_0_WALL_5, is in front of receiving surface=LOBBY_0_WALL_6
   **   ~~~   **    (Dot Product indicator=            197.8501)
   **   ~~~   **    Check surface geometry; if OK, use Solar Distribution = FullExterior instead. Use Output:Diagnostics, DisplayExtraWarnings; for more details.
   ** Severe  ** Problem in interior solar distribution calculation (CHKBKS)
   **   ~~~   **    Solar Distribution = FullInteriorExterior will not work in Zone=LOBBY_0
   **   ~~~   **    because one or more of vertices, such as Vertex 2 of back surface=LOBBY_0_WALL_7, is in front of receiving surface=LOBBY_0_WALL_6
   **   ~~~   **    (Dot Product indicator=             32.7628)
   **   ~~~   **    Check surface geometry; if OK, use Solar Distribution = FullExterior instead. Use Output:Diagnostics, DisplayExtraWarnings; for more details.
   ** Severe  ** Problem in interior solar distribution calculation (CHKBKS)
   **   ~~~   **    Solar Distribution = FullInteriorExterior will not work in Zone=LOBBY_0
   **   ~~~   **    because one or more of vertices, such as Vertex 1 of back surface=LOBBY_0_WALL_8, is in front of receiving surface=LOBBY_0_WALL_6
   **   ~~~   **    (Dot Product indicator=             32.7628)
   **   ~~~   **    Check surface geometry; if OK, use Solar Distribution = FullExterior instead. Use Output:Diagnostics, DisplayExtraWarnings; for more details.
   ** Severe  ** Problem in interior solar distribution calculation (CHKBKS)
   **   ~~~   **    Solar Distribution = FullInteriorExterior will not work in Zone=LOBBY_0
   **   ~~~   **    because one or more of vertices, such as Vertex 1 of back surface=LOBBY_0_FLOOR, is in front of receiving surface=LOBBY_0_WALL_6
   **   ~~~   **    (Dot Product indicator=             32.7628)
   **   ~~~   **    Check surface geometry; if OK, use Solar Distribution = FullExterior instead. Use Output:Diagnostics, DisplayExtraWarnings; for more details.
   ** Severe  ** Problem in interior solar distribution calculation (CHKBKS)
   **   ~~~   **    Solar Distribution = FullInteriorExterior will not work in Zone=LOBBY_0
   **   ~~~   **    because one or more of vertices, such as Vertex 1 of back surface=LOBBY_0_CEILING, is in front of receiving surface=LOBBY_0_WALL_6
   **   ~~~   **    (Dot Product indicator=             32.7628)
   **   ~~~   **    Check surface geometry; if OK, use Solar Distribution = FullExterior instead. Use Output:Diagnostics, DisplayExtraWarnings; for more details.
   ** Severe  ** Problem in interior solar distribution calculation (CHKBKS)
   **   ~~~   **    Solar Distribution = FullInteriorExterior will not work in Zone=LOBBY_0
   **   ~~~   **    because one or more of vertices, such as Vertex 1 of back surface=LOBBY_0_WINDOW_1, is in front of receiving surface=LOBBY_0_WALL_6
   **   ~~~   **    (Dot Product indicator=             55.3448)
   **   ~~~   **    Check surface geometry; if OK, use Solar Distribution = FullExterior instead. Use Output:Diagnostics, DisplayExtraWarnings; for more details.
   ** Severe  ** Problem in interior solar distribution calculation (CHKBKS)
   **   ~~~   **    Solar Distribution = FullInteriorExterior will not work in Zone=LOBBY_0
   **   ~~~   **    because one or more of vertices, such as Vertex 1 of back surface=LOBBY_0_WINDOW_4, is in front of receiving surface=LOBBY_0_WALL_6
   **   ~~~   **    (Dot Product indicator=            198.6460)
   **   ~~~   **    Check surface geometry; if OK, use Solar Distribution = FullExterior instead. Use Output:Diagnostics, DisplayExtraWarnings; for more details.
   ** Severe  ** Problem in interior solar distribution calculation (CHKBKS)
   **   ~~~   **    Solar Distribution = FullInteriorExterior will not work in Zone=LOBBY_0
   **   ~~~   **    because one or more of vertices, such as Vertex 1 of back surface=LOBBY_0_WINDOW_5, is in front of receiving surface=LOBBY_0_WALL_6
   **   ~~~   **    (Dot Product indicator=            168.1721)
   **   ~~~   **    Check surface geometry; if OK, use Solar Distribution = FullExterior instead. Use Output:Diagnostics, DisplayExtraWarnings; for more details.
   ** Severe  ** Problem in interior solar distribution calculation (CHKBKS)
   **   ~~~   **    Solar Distribution = FullInteriorExterior will not work in Zone=LOBBY_0
   **   ~~~   **    because one or more of vertices, such as Vertex 1 of back surface=LOBBY_0_WINDOW_7, is in front of receiving surface=LOBBY_0_WALL_6
   **   ~~~   **    (Dot Product indicator=              4.9153)
   **   ~~~   **    Check surface geometry; if OK, use Solar Distribution = FullExterior instead. Use Output:Diagnostics, DisplayExtraWarnings; for more details.
   ** Severe  ** Problem in interior solar distribution calculation (CHKBKS)
   **   ~~~   **    Solar Distribution = FullInteriorExterior will not work in Zone=LOBBY_0
   **   ~~~   **    because one or more of vertices, such as Vertex 1 of back surface=LOBBY_0_WALL_1, is in front of receiving surface=LOBBY_0_WALL_7
   **   ~~~   **    (Dot Product indicator=              1.5869)
   **   ~~~   **    Check surface geometry; if OK, use Solar Distribution = FullExterior instead. Use Output:Diagnostics, DisplayExtraWarnings; for more details.
   ** Severe  ** Problem in interior solar distribution calculation (CHKBKS)
   **   ~~~   **    Solar Distribution = FullInteriorExterior will not work in Zone=LOBBY_0
   **   ~~~   **    because one or more of vertices, such as Vertex 1 of back surface=LOBBY_0_WALL_2, is in front of receiving surface=LOBBY_0_WALL_7
   **   ~~~   **    (Dot Product indicator=              1.5869)
   **   ~~~   **    Check surface geometry; if OK, use Solar Distribution = FullExterior instead. Use Output:Diagnostics, DisplayExtraWarnings; for more details.
   ** Severe  ** Problem in interior solar distribution calculation (CHKBKS)
   **   ~~~   **    Solar Distribution = FullInteriorExterior will not work in Zone=LOBBY_0
   **   ~~~   **    because one or more of vertices, such as Vertex 2 of back surface=LOBBY_0_WALL_4, is in front of receiving surface=LOBBY_0_WALL_7
   **   ~~~   **    (Dot Product indicator=             32.7628)
   **   ~~~   **    Check surface geometry; if OK, use Solar Distribution = FullExterior instead. Use Output:Diagnostics, DisplayExtraWarnings; for more details.
   ** Severe  ** Problem in interior solar distribution calculation (CHKBKS)
   **   ~~~   **    Solar Distribution = FullInteriorExterior will not work in Zone=LOBBY_0
   **   ~~~   **    because one or more of vertices, such as Vertex 1 of back surface=LOBBY_0_WALL_5, is in front of receiving surface=LOBBY_0_WALL_7
   **   ~~~   **    (Dot Product indicator=             32.7628)
   **   ~~~   **    Check surface geometry; if OK, use Solar Distribution = FullExterior instead. Use Output:Diagnostics, DisplayExtraWarnings; for more details.
   ** Severe  ** Problem in interior solar distribution calculation (CHKBKS)
   **   ~~~   **    Solar Distribution = FullInteriorExterior will not work in Zone=LOBBY_0
   **   ~~~   **    because one or more of vertices, such as Vertex 1 of back surface=LOBBY_0_WALL_6, is in front of receiving surface=LOBBY_0_WALL_7
   **   ~~~   **    (Dot Product indicator=             32.7628)
   **   ~~~   **    Check surface geometry; if OK, use Solar Distribution = FullExterior instead. Use Output:Diagnostics, DisplayExtraWarnings; for more details.
   ** Severe  ** Problem in interior solar distribution calculation (CHKBKS)
   **   ~~~   **    Solar Distribution = FullInteriorExterior will not work in Zone=LOBBY_0
   **   ~~~   **    because one or more of vertices, such as Vertex 2 of back surface=LOBBY_0_WALL_8, is in front of receiving surface=LOBBY_0_WALL_7
   **   ~~~   **    (Dot Product indicator=              1.5869)
   **   ~~~   **    Check surface geometry; if OK, use Solar Distribution = FullExterior instead. Use Output:Diagnostics, DisplayExtraWarnings; for more details.
   ** Severe  ** Problem in interior solar distribution calculation (CHKBKS)
   **   ~~~   **    Solar Distribution = FullInteriorExterior will not work in Zone=LOBBY_0
   **   ~~~   **    because one or more of vertices, such as Vertex 1 of back surface=LOBBY_0_FLOOR, is in front of receiving surface=LOBBY_0_WALL_7
   **   ~~~   **    (Dot Product indicator=              1.5869)
   **   ~~~   **    Check surface geometry; if OK, use Solar Distribution = FullExterior instead. Use Output:Diagnostics, DisplayExtraWarnings; for more details.
   ** Severe  ** Problem in interior solar distribution calculation (CHKBKS)
   **   ~~~   **    Solar Distribution = FullInteriorExterior will not work in Zone=LOBBY_0
   **   ~~~   **    because one or more of vertices, such as Vertex 3 of back surface=LOBBY_0_CEILING, is in front of receiving surface=LOBBY_0_WALL_7
   **   ~~~   **    (Dot Product indicator=             32.7628)
   **   ~~~   **    Check surface geometry; if OK, use Solar Distribution = FullExterior instead. Use Output:Diagnostics, DisplayExtraWarnings; for more details.
   ** Severe  ** Problem in interior solar distribution calculation (CHKBKS)
   **   ~~~   **    Solar Distribution = FullInteriorExterior will not work in Zone=LOBBY_0
   **   ~~~   **    because one or more of vertices, such as Vertex 1 of back surface=LOBBY_0_WINDOW_1, is in front of receiving surface=LOBBY_0_WALL_7
   **   ~~~   **    (Dot Product indicator=              1.4326)
   **   ~~~   **    Check surface geometry; if OK, use Solar Distribution = FullExterior instead. Use Output:Diagnostics, DisplayExtraWarnings; for more details.
   ** Severe  ** Problem in interior solar distribution calculation (CHKBKS)
   **   ~~~   **    Solar Distribution = FullInteriorExterior will not work in Zone=LOBBY_0
   **   ~~~   **    because one or more of vertices, such as Vertex 1 of back surface=LOBBY_0_WINDOW_4, is in front of receiving surface=LOBBY_0_WALL_7
   **   ~~~   **    (Dot Product indicator=              4.9143)
   **   ~~~   **    Check surface geometry; if OK, use Solar Distribution = FullExterior instead. Use Output:Diagnostics, DisplayExtraWarnings; for more details.
   ** Severe  ** Problem in interior solar distribution calculation (CHKBKS)
   **   ~~~   **    Solar Distribution = FullInteriorExterior will not work in Zone=LOBBY_0
   **   ~~~   **    because one or more of vertices, such as Vertex 1 of back surface=LOBBY_0_WINDOW_5, is in front of receiving surface=LOBBY_0_WALL_7
   **   ~~~   **    (Dot Product indicator=             32.9172)
   **   ~~~   **    Check surface geometry; if OK, use Solar Distribution = FullExterior instead. Use Output:Diagnostics, DisplayExtraWarnings; for more details.
   ** Severe  ** Problem in interior solar distribution calculation (CHKBKS)
   **   ~~~   **    Solar Distribution = FullInteriorExterior will not work in Zone=LOBBY_0
   **   ~~~   **    because one or more of vertices, such as Vertex 1 of back surface=LOBBY_0_WINDOW_6, is in front of receiving surface=LOBBY_0_WALL_7
   **   ~~~   **    (Dot Product indicator=             27.8485)
   **   ~~~   **    Check surface geometry; if OK, use Solar Distribution = FullExterior instead. Use Output:Diagnostics, DisplayExtraWarnings; for more details.
   ** Severe  ** Problem in interior solar distribution calculation (CHKBKS)
   **   ~~~   **    Solar Distribution = FullInteriorExterior will not work in Zone=CONFERENCE_0
   **   ~~~   **    because one or more of vertices, such as Vertex 2 of back surface=CONFERENCE_0_WALL_2, is in front of receiving surface=CONFERENCE_0_WALL_1
   **   ~~~   **    (Dot Product indicator=            116.1652)
   **   ~~~   **    Check surface geometry; if OK, use Solar Distribution = FullExterior instead. Use Output:Diagnostics, DisplayExtraWarnings; for more details.
   ** Severe  ** Problem in interior solar distribution calculation (CHKBKS)
   **   ~~~   **    Solar Distribution = FullInteriorExterior will not work in Zone=CONFERENCE_0
   **   ~~~   **    because one or more of vertices, such as Vertex 1 of back surface=CONFERENCE_0_WALL_3, is in front of receiving surface=CONFERENCE_0_WALL_1
   **   ~~~   **    (Dot Product indicator=            116.1652)
   **   ~~~   **    Check surface geometry; if OK, use Solar Distribution = FullExterior instead. Use Output:Diagnostics, DisplayExtraWarnings; for more details.
   ** Severe  ** Problem in interior solar distribution calculation (CHKBKS)
   **   ~~~   **    Solar Distribution = FullInteriorExterior will not work in Zone=CONFERENCE_0
   **   ~~~   **    because one or more of vertices, such as Vertex 1 of back surface=CONFERENCE_0_WALL_4, is in front of receiving surface=CONFERENCE_0_WALL_1
   **   ~~~   **    (Dot Product indicator=            116.1652)
   **   ~~~   **    Check surface geometry; if OK, use Solar Distribution = FullExterior instead. Use Output:Diagnostics, DisplayExtraWarnings; for more details.
   ** Severe  ** Problem in interior solar distribution calculation (CHKBKS)
   **   ~~~   **    Solar Distribution = FullInteriorExterior will not work in Zone=CONFERENCE_0
   **   ~~~   **    because one or more of vertices, such as Vertex 3 of back surface=CONFERENCE_0_FLOOR, is in front of receiving surface=CONFERENCE_0_WALL_1
   **   ~~~   **    (Dot Product indicator=            116.1652)
   **   ~~~   **    Check surface geometry; if OK, use Solar Distribution = FullExterior instead. Use Output:Diagnostics, DisplayExtraWarnings; for more details.
   ** Severe  ** Problem in interior solar distribution calculation (CHKBKS)
   **   ~~~   **    Solar Distribution = FullInteriorExterior will not work in Zone=CONFERENCE_0
   **   ~~~   **    because one or more of vertices, such as Vertex 1 of back surface=CONFERENCE_0_CEILING, is in front of receiving surface=CONFERENCE_0_WALL_1
   **   ~~~   **    (Dot Product indicator=            116.1652)
   **   ~~~   **    Check surface geometry; if OK, use Solar Distribution = FullExterior instead. Use Output:Diagnostics, DisplayExtraWarnings; for more details.
   ** Severe  ** Problem in interior solar distribution calculation (CHKBKS)
   **   ~~~   **    Solar Distribution = FullInteriorExterior will not work in Zone=CONFERENCE_0
   **   ~~~   **    because one or more of vertices, such as Vertex 1 of back surface=CONFERENCE_0_WINDOW_2, is in front of receiving surface=CONFERENCE_0_WALL_1
   **   ~~~   **    (Dot Product indicator=             17.4248)
   **   ~~~   **    Check surface geometry; if OK, use Solar Distribution = FullExterior instead. Use Output:Diagnostics, DisplayExtraWarnings; for more details.
   ** Severe  ** Problem in interior solar distribution calculation (CHKBKS)
   **   ~~~   **    Solar Distribution = FullInteriorExterior will not work in Zone=CONFERENCE_0
   **   ~~~   **    because one or more of vertices, such as Vertex 1 of back surface=CONFERENCE_0_WINDOW_3, is in front of receiving surface=CONFERENCE_0_WALL_1
   **   ~~~   **    (Dot Product indicator=            116.7917)
   **   ~~~   **    Check surface geometry; if OK, use Solar Distribution = FullExterior instead. Use Output:Diagnostics, DisplayExtraWarnings; for more details.
   ** Severe  ** Problem in interior solar distribution calculation (CHKBKS)
   **   ~~~   **    Solar Distribution = FullInteriorExterior will not work in Zone=CONFERENCE_0
   **   ~~~   **    because one or more of vertices, such as Vertex 1 of back surface=CONFERENCE_0_WINDOW_4, is in front of receiving surface=CONFERENCE_0_WALL_1
   **   ~~~   **    (Dot Product indicator=             98.7404)
   **   ~~~   **    Check surface geometry; if OK, use Solar Distribution = FullExterior instead. Use Output:Diagnostics, DisplayExtraWarnings; for more details.
   ** Severe  ** Problem in interior solar distribution calculation (CHKBKS)
   **   ~~~   **    Solar Distribution = FullInteriorExterior will not work in Zone=CONFERENCE_0
   **   ~~~   **    because one or more of vertices, such as Vertex 1 of back surface=CONFERENCE_0_WALL_1, is in front of receiving surface=CONFERENCE_0_WALL_2
   **   ~~~   **    (Dot Product indicator=            116.1652)
   **   ~~~   **    Check surface geometry; if OK, use Solar Distribution = FullExterior instead. Use Output:Diagnostics, DisplayExtraWarnings; for more details.
   ** Severe  ** Problem in interior solar distribution calculation (CHKBKS)
   **   ~~~   **    Solar Distribution = FullInteriorExterior will not work in Zone=CONFERENCE_0
   **   ~~~   **    because one or more of vertices, such as Vertex 2 of back surface=CONFERENCE_0_WALL_3, is in front of receiving surface=CONFERENCE_0_WALL_2
   **   ~~~   **    (Dot Product indicator=            116.1652)
   **   ~~~   **    Check surface geometry; if OK, use Solar Distribution = FullExterior instead. Use Output:Diagnostics, DisplayExtraWarnings; for more details.
   ** Severe  ** Problem in interior solar distribution calculation (CHKBKS)
   **   ~~~   **    Solar Distribution = FullInteriorExterior will not work in Zone=CONFERENCE_0
   **   ~~~   **    because one or more of vertices, such as Vertex 1 of back surface=CONFERENCE_0_WALL_4, is in front of receiving surface=CONFERENCE_0_WALL_2
   **   ~~~   **    (Dot Product indicator=            116.1652)
   **   ~~~   **    Check surface geometry; if OK, use Solar Distribution = FullExterior instead. Use Output:Diagnostics, DisplayExtraWarnings; for more details.
   ** Severe  ** Problem in interior solar distribution calculation (CHKBKS)
   **   ~~~   **    Solar Distribution = FullInteriorExterior will not work in Zone=CONFERENCE_0
   **   ~~~   **    because one or more of vertices, such as Vertex 1 of back surface=CONFERENCE_0_FLOOR, is in front of receiving surface=CONFERENCE_0_WALL_2
   **   ~~~   **    (Dot Product indicator=            116.1652)
   **   ~~~   **    Check surface geometry; if OK, use Solar Distribution = FullExterior instead. Use Output:Diagnostics, DisplayExtraWarnings; for more details.
   ** Severe  ** Problem in interior solar distribution calculation (CHKBKS)
   **   ~~~   **    Solar Distribution = FullInteriorExterior will not work in Zone=CONFERENCE_0
   **   ~~~   **    because one or more of vertices, such as Vertex 1 of back surface=CONFERENCE_0_CEILING, is in front of receiving surface=CONFERENCE_0_WALL_2
   **   ~~~   **    (Dot Product indicator=            116.1652)
   **   ~~~   **    Check surface geometry; if OK, use Solar Distribution = FullExterior instead. Use Output:Diagnostics, DisplayExtraWarnings; for more details.
   ** Severe  ** Problem in interior solar distribution calculation (CHKBKS)
   **   ~~~   **    Solar Distribution = FullInteriorExterior will not work in Zone=CONFERENCE_0
   **   ~~~   **    because one or more of vertices, such as Vertex 1 of back surface=CONFERENCE_0_WINDOW_1, is in front of receiving surface=CONFERENCE_0_WALL_2
   **   ~~~   **    (Dot Product indicator=             98.7408)
   **   ~~~   **    Check surface geometry; if OK, use Solar Distribution = FullExterior instead. Use Output:Diagnostics, DisplayExtraWarnings; for more details.
   ** Severe  ** Problem in interior solar distribution calculation (CHKBKS)
   **   ~~~   **    Solar Distribution = FullInteriorExterior will not work in Zone=CONFERENCE_0
   **   ~~~   **    because one or more of vertices, such as Vertex 1 of back surface=CONFERENCE_0_WINDOW_3, is in front of receiving surface=CONFERENCE_0_WALL_2
   **   ~~~   **    (Dot Product indicator=             17.4244)
   **   ~~~   **    Check surface geometry; if OK, use Solar Distribution = FullExterior instead. Use Output:Diagnostics, DisplayExtraWarnings; for more details.
   ** Severe  ** Problem in interior solar distribution calculation (CHKBKS)
   **   ~~~   **    Solar Distribution = FullInteriorExterior will not work in Zone=CONFERENCE_0
   **   ~~~   **    because one or more of vertices, such as Vertex 1 of back surface=CONFERENCE_0_WINDOW_4, is in front of receiving surface=CONFERENCE_0_WALL_2
   **   ~~~   **    (Dot Product indicator=            116.8604)
   **   ~~~   **    Check surface geometry; if OK, use Solar Distribution = FullExterior instead. Use Output:Diagnostics, DisplayExtraWarnings; for more details.
   ** Severe  ** Problem in interior solar distribution calculation (CHKBKS)
   **   ~~~   **    Solar Distribution = FullInteriorExterior will not work in Zone=CONFERENCE_0
   **   ~~~   **    because one or more of vertices, such as Vertex 1 of back surface=CONFERENCE_0_WALL_1, is in front of receiving surface=CONFERENCE_0_WALL_3
   **   ~~~   **    (Dot Product indicator=            116.1652)
   **   ~~~   **    Check surface geometry; if OK, use Solar Distribution = FullExterior instead. Use Output:Diagnostics, DisplayExtraWarnings; for more details.
   ** Severe  ** Problem in interior solar distribution calculation (CHKBKS)
   **   ~~~   **    Solar Distribution = FullInteriorExterior will not work in Zone=CONFERENCE_0
   **   ~~~   **    because one or more of vertices, such as Vertex 1 of back surface=CONFERENCE_0_WALL_2, is in front of receiving surface=CONFERENCE_0_WALL_3
   **   ~~~   **    (Dot Product indicator=            116.1652)
   **   ~~~   **    Check surface geometry; if OK, use Solar Distribution = FullExterior instead. Use Output:Diagnostics, DisplayExtraWarnings; for more details.
   ** Severe  ** Problem in interior solar distribution calculation (CHKBKS)
   **   ~~~   **    Solar Distribution = FullInteriorExterior will not work in Zone=CONFERENCE_0
   **   ~~~   **    because one or more of vertices, such as Vertex 2 of back surface=CONFERENCE_0_WALL_4, is in front of receiving surface=CONFERENCE_0_WALL_3
   **   ~~~   **    (Dot Product indicator=            116.1652)
   **   ~~~   **    Check surface geometry; if OK, use Solar Distribution = FullExterior instead. Use Output:Diagnostics, DisplayExtraWarnings; for more details.
   ** Severe  ** Problem in interior solar distribution calculation (CHKBKS)
   **   ~~~   **    Solar Distribution = FullInteriorExterior will not work in Zone=CONFERENCE_0
   **   ~~~   **    because one or more of vertices, such as Vertex 1 of back surface=CONFERENCE_0_FLOOR, is in front of receiving surface=CONFERENCE_0_WALL_3
   **   ~~~   **    (Dot Product indicator=            116.1652)
   **   ~~~   **    Check surface geometry; if OK, use Solar Distribution = FullExterior instead. Use Output:Diagnostics, DisplayExtraWarnings; for more details.
   ** Severe  ** Problem in interior solar distribution calculation (CHKBKS)
   **   ~~~   **    Solar Distribution = FullInteriorExterior will not work in Zone=CONFERENCE_0
   **   ~~~   **    because one or more of vertices, such as Vertex 3 of back surface=CONFERENCE_0_CEILING, is in front of receiving surface=CONFERENCE_0_WALL_3
   **   ~~~   **    (Dot Product indicator=            116.1652)
   **   ~~~   **    Check surface geometry; if OK, use Solar Distribution = FullExterior instead. Use Output:Diagnostics, DisplayExtraWarnings; for more details.
   ** Severe  ** Problem in interior solar distribution calculation (CHKBKS)
   **   ~~~   **    Solar Distribution = FullInteriorExterior will not work in Zone=CONFERENCE_0
   **   ~~~   **    because one or more of vertices, such as Vertex 1 of back surface=CONFERENCE_0_WINDOW_1, is in front of receiving surface=CONFERENCE_0_WALL_3
   **   ~~~   **    (Dot Product indicator=            116.7917)
   **   ~~~   **    Check surface geometry; if OK, use Solar Distribution = FullExterior instead. Use Output:Diagnostics, DisplayExtraWarnings; for more details.
   ** Severe  ** Problem in interior solar distribution calculation (CHKBKS)
   **   ~~~   **    Solar Distribution = FullInteriorExterior will not work in Zone=CONFERENCE_0
   **   ~~~   **    because one or more of vertices, such as Vertex 1 of back surface=CONFERENCE_0_WINDOW_2, is in front of receiving surface=CONFERENCE_0_WALL_3
   **   ~~~   **    (Dot Product indicator=             98.7404)
   **   ~~~   **    Check surface geometry; if OK, use Solar Distribution = FullExterior instead. Use Output:Diagnostics, DisplayExtraWarnings; for more details.
   ** Severe  ** Problem in interior solar distribution calculation (CHKBKS)
   **   ~~~   **    Solar Distribution = FullInteriorExterior will not work in Zone=CONFERENCE_0
   **   ~~~   **    because one or more of vertices, such as Vertex 1 of back surface=CONFERENCE_0_WINDOW_4, is in front of receiving surface=CONFERENCE_0_WALL_3
   **   ~~~   **    (Dot Product indicator=             17.4248)
   **   ~~~   **    Check surface geometry; if OK, use Solar Distribution = FullExterior instead. Use Output:Diagnostics, DisplayExtraWarnings; for more details.
   ** Severe  ** Problem in interior solar distribution calculation (CHKBKS)
   **   ~~~   **    Solar Distribution = FullInteriorExterior will not work in Zone=CONFERENCE_0
   **   ~~~   **    because one or more of vertices, such as Vertex 2 of back surface=CONFERENCE_0_WALL_1, is in front of receiving surface=CONFERENCE_0_WALL_4
   **   ~~~   **    (Dot Product indicator=            116.1652)
   **   ~~~   **    Check surface geometry; if OK, use Solar Distribution = FullExterior instead. Use Output:Diagnostics, DisplayExtraWarnings; for more details.
   ** Severe  ** Problem in interior solar distribution calculation (CHKBKS)
   **   ~~~   **    Solar Distribution = FullInteriorExterior will not work in Zone=CONFERENCE_0
   **   ~~~   **    because one or more of vertices, such as Vertex 1 of back surface=CONFERENCE_0_WALL_2, is in front of receiving surface=CONFERENCE_0_WALL_4
   **   ~~~   **    (Dot Product indicator=            116.1652)
   **   ~~~   **    Check surface geometry; if OK, use Solar Distribution = FullExterior instead. Use Output:Diagnostics, DisplayExtraWarnings; for more details.
   ** Severe  ** Problem in interior solar distribution calculation (CHKBKS)
   **   ~~~   **    Solar Distribution = FullInteriorExterior will not work in Zone=CONFERENCE_0
   **   ~~~   **    because one or more of vertices, such as Vertex 1 of back surface=CONFERENCE_0_WALL_3, is in front of receiving surface=CONFERENCE_0_WALL_4
   **   ~~~   **    (Dot Product indicator=            116.1652)
   **   ~~~   **    Check surface geometry; if OK, use Solar Distribution = FullExterior instead. Use Output:Diagnostics, DisplayExtraWarnings; for more details.
   ** Severe  ** Problem in interior solar distribution calculation (CHKBKS)
   **   ~~~   **    Solar Distribution = FullInteriorExterior will not work in Zone=CONFERENCE_0
   **   ~~~   **    because one or more of vertices, such as Vertex 2 of back surface=CONFERENCE_0_FLOOR, is in front of receiving surface=CONFERENCE_0_WALL_4
   **   ~~~   **    (Dot Product indicator=            116.1652)
   **   ~~~   **    Check surface geometry; if OK, use Solar Distribution = FullExterior instead. Use Output:Diagnostics, DisplayExtraWarnings; for more details.
   ** Severe  ** Problem in interior solar distribution calculation (CHKBKS)
   **   ~~~   **    Solar Distribution = FullInteriorExterior will not work in Zone=CONFERENCE_0
   **   ~~~   **    because one or more of vertices, such as Vertex 2 of back surface=CONFERENCE_0_CEILING, is in front of receiving surface=CONFERENCE_0_WALL_4
   **   ~~~   **    (Dot Product indicator=            116.1652)
   **   ~~~   **    Check surface geometry; if OK, use Solar Distribution = FullExterior instead. Use Output:Diagnostics, DisplayExtraWarnings; for more details.
   ** Severe  ** Problem in interior solar distribution calculation (CHKBKS)
   **   ~~~   **    Solar Distribution = FullInteriorExterior will not work in Zone=CONFERENCE_0
   **   ~~~   **    because one or more of vertices, such as Vertex 1 of back surface=CONFERENCE_0_WINDOW_1, is in front of receiving surface=CONFERENCE_0_WALL_4
   **   ~~~   **    (Dot Product indicator=             17.4244)
   **   ~~~   **    Check surface geometry; if OK, use Solar Distribution = FullExterior instead. Use Output:Diagnostics, DisplayExtraWarnings; for more details.
   ** Severe  ** Problem in interior solar distribution calculation (CHKBKS)
   **   ~~~   **    Solar Distribution = FullInteriorExterior will not work in Zone=CONFERENCE_0
   **   ~~~   **    because one or more of vertices, such as Vertex 1 of back surface=CONFERENCE_0_WINDOW_2, is in front of receiving surface=CONFERENCE_0_WALL_4
   **   ~~~   **    (Dot Product indicator=            116.8604)
   **   ~~~   **    Check surface geometry; if OK, use Solar Distribution = FullExterior instead. Use Output:Diagnostics, DisplayExtraWarnings; for more details.
   ** Severe  ** Problem in interior solar distribution calculation (CHKBKS)
   **   ~~~   **    Solar Distribution = FullInteriorExterior will not work in Zone=CONFERENCE_0
   **   ~~~   **    because one or more of vertices, such as Vertex 1 of back surface=CONFERENCE_0_WINDOW_3, is in front of receiving surface=CONFERENCE_0_WALL_4
   **   ~~~   **    (Dot Product indicator=             98.7408)
   **   ~~~   **    Check surface geometry; if OK, use Solar Distribution = FullExterior instead. Use Output:Diagnostics, DisplayExtraWarnings; for more details.
   ** Severe  ** Problem in interior solar distribution calculation (CHKBKS)
   **   ~~~   **    Solar Distribution = FullInteriorExterior will not work in Zone=BREAK_ROOM_0
   **   ~~~   **    because one or more of vertices, such as Vertex 2 of back surface=BREAK_ROOM_0_WALL_2, is in front of receiving surface=BREAK_ROOM_0_WALL_1
   **   ~~~   **    (Dot Product indicator=             94.4805)
   **   ~~~   **    Check surface geometry; if OK, use Solar Distribution = FullExterior instead. Use Output:Diagnostics, DisplayExtraWarnings; for more details.
   ** Severe  ** Problem in interior solar distribution calculation (CHKBKS)
   **   ~~~   **    Solar Distribution = FullInteriorExterior will not work in Zone=BREAK_ROOM_0
   **   ~~~   **    because one or more of vertices, such as Vertex 1 of back surface=BREAK_ROOM_0_WALL_3, is in front of receiving surface=BREAK_ROOM_0_WALL_1
   **   ~~~   **    (Dot Product indicator=             94.4805)
   **   ~~~   **    Check surface geometry; if OK, use Solar Distribution = FullExterior instead. Use Output:Diagnostics, DisplayExtraWarnings; for more details.
   ** Severe  ** Problem in interior solar distribution calculation (CHKBKS)
   **   ~~~   **    Solar Distribution = FullInteriorExterior will not work in Zone=BREAK_ROOM_0
   **   ~~~   **    because one or more of vertices, such as Vertex 1 of back surface=BREAK_ROOM_0_WALL_4, is in front of receiving surface=BREAK_ROOM_0_WALL_1
   **   ~~~   **    (Dot Product indicator=             94.4805)
   **   ~~~   **    Check surface geometry; if OK, use Solar Distribution = FullExterior instead. Use Output:Diagnostics, DisplayExtraWarnings; for more details.
   ** Severe  ** Problem in interior solar distribution calculation (CHKBKS)
   **   ~~~   **    Solar Distribution = FullInteriorExterior will not work in Zone=BREAK_ROOM_0
   **   ~~~   **    because one or more of vertices, such as Vertex 3 of back surface=BREAK_ROOM_0_FLOOR, is in front of receiving surface=BREAK_ROOM_0_WALL_1
   **   ~~~   **    (Dot Product indicator=             94.4805)
   **   ~~~   **    Check surface geometry; if OK, use Solar Distribution = FullExterior instead. Use Output:Diagnostics, DisplayExtraWarnings; for more details.
   ** Severe  ** Problem in interior solar distribution calculation (CHKBKS)
   **   ~~~   **    Solar Distribution = FullInteriorExterior will not work in Zone=BREAK_ROOM_0
   **   ~~~   **    because one or more of vertices, such as Vertex 1 of back surface=BREAK_ROOM_0_CEILING, is in front of receiving surface=BREAK_ROOM_0_WALL_1
   **   ~~~   **    (Dot Product indicator=             94.4805)
   **   ~~~   **    Check surface geometry; if OK, use Solar Distribution = FullExterior instead. Use Output:Diagnostics, DisplayExtraWarnings; for more details.
   ** Severe  ** Problem in interior solar distribution calculation (CHKBKS)
   **   ~~~   **    Solar Distribution = FullInteriorExterior will not work in Zone=BREAK_ROOM_0
   **   ~~~   **    because one or more of vertices, such as Vertex 1 of back surface=BREAK_ROOM_0_WINDOW_2, is in front of receiving surface=BREAK_ROOM_0_WALL_1
   **   ~~~   **    (Dot Product indicator=             14.1717)
   **   ~~~   **    Check surface geometry; if OK, use Solar Distribution = FullExterior instead. Use Output:Diagnostics, DisplayExtraWarnings; for more details.
   ** Severe  ** Problem in interior solar distribution calculation (CHKBKS)
   **   ~~~   **    Solar Distribution = FullInteriorExterior will not work in Zone=BREAK_ROOM_0
   **   ~~~   **    because one or more of vertices, such as Vertex 1 of back surface=BREAK_ROOM_0_WINDOW_3, is in front of receiving surface=BREAK_ROOM_0_WALL_1
   **   ~~~   **    (Dot Product indicator=             94.9198)
   **   ~~~   **    Check surface geometry; if OK, use Solar Distribution = FullExterior instead. Use Output:Diagnostics, DisplayExtraWarnings; for more details.
   ** Severe  ** Problem in interior solar distribution calculation (CHKBKS)
   **   ~~~   **    Solar Distribution = FullInteriorExterior will not work in Zone=BREAK_ROOM_0
   **   ~~~   **    because one or more of vertices, such as Vertex 1 of back surface=BREAK_ROOM_0_WINDOW_4, is in front of receiving surface=BREAK_ROOM_0_WALL_1
   **   ~~~   **    (Dot Product indicator=             80.3079)
   **   ~~~   **    Check surface geometry; if OK, use Solar Distribution = FullExterior instead. Use Output:Diagnostics, DisplayExtraWarnings; for more details.
   ** Severe  ** Problem in interior solar distribution calculation (CHKBKS)
   **   ~~~   **    Solar Distribution = FullInteriorExterior will not work in Zone=BREAK_ROOM_0
   **   ~~~   **    because one or more of vertices, such as Vertex 1 of back surface=BREAK_ROOM_0_WALL_1, is in front of receiving surface=BREAK_ROOM_0_WALL_2
   **   ~~~   **    (Dot Product indicator=             94.4805)
   **   ~~~   **    Check surface geometry; if OK, use Solar Distribution = FullExterior instead. Use Output:Diagnostics, DisplayExtraWarnings; for more details.
   ** Severe  ** Problem in interior solar distribution calculation (CHKBKS)
   **   ~~~   **    Solar Distribution = FullInteriorExterior will not work in Zone=BREAK_ROOM_0
   **   ~~~   **    because one or more of vertices, such as Vertex 2 of back surface=BREAK_ROOM_0_WALL_3, is in front of receiving surface=BREAK_ROOM_0_WALL_2
   **   ~~~   **    (Dot Product indicator=             94.4805)
   **   ~~~   **    Check surface geometry; if OK, use Solar Distribution = FullExterior instead. Use Output:Diagnostics, DisplayExtraWarnings; for more details.
   ** Severe  ** Problem in interior solar distribution calculation (CHKBKS)
   **   ~~~   **    Solar Distribution = FullInteriorExterior will not work in Zone=BREAK_ROOM_0
   **   ~~~   **    because one or more of vertices, such as Vertex 1 of back surface=BREAK_ROOM_0_WALL_4, is in front of receiving surface=BREAK_ROOM_0_WALL_2
   **   ~~~   **    (Dot Product indicator=             94.4805)
   **   ~~~   **    Check surface geometry; if OK, use Solar Distribution = FullExterior instead. Use Output:Diagnostics, DisplayExtraWarnings; for more details.
   ** Severe  ** Problem in interior solar distribution calculation (CHKBKS)
   **   ~~~   **    Solar Distribution = FullInteriorExterior will not work in Zone=BREAK_ROOM_0
   **   ~~~   **    because one or more of vertices, such as Vertex 1 of back surface=BREAK_ROOM_0_FLOOR, is in front of receiving surface=BREAK_ROOM_0_WALL_2
   **   ~~~   **    (Dot Product indicator=             94.4805)
   **   ~~~   **    Check surface geometry; if OK, use Solar Distribution = FullExterior instead. Use Output:Diagnostics, DisplayExtraWarnings; for more details.
   ** Severe  ** Problem in interior solar distribution calculation (CHKBKS)
   **   ~~~   **    Solar Distribution = FullInteriorExterior will not work in Zone=BREAK_ROOM_0
   **   ~~~   **    because one or more of vertices, such as Vertex 1 of back surface=BREAK_ROOM_0_CEILING, is in front of receiving surface=BREAK_ROOM_0_WALL_2
   **   ~~~   **    (Dot Product indicator=             94.4805)
   **   ~~~   **    Check surface geometry; if OK, use Solar Distribution = FullExterior instead. Use Output:Diagnostics, DisplayExtraWarnings; for more details.
   ** Severe  ** Problem in interior solar distribution calculation (CHKBKS)
   **   ~~~   **    Solar Distribution = FullInteriorExterior will not work in Zone=BREAK_ROOM_0
   **   ~~~   **    because one or more of vertices, such as Vertex 1 of back surface=BREAK_ROOM_0_WINDOW_1, is in front of receiving surface=BREAK_ROOM_0_WALL_2
   **   ~~~   **    (Dot Product indicator=             80.3084)
   **   ~~~   **    Check surface geometry; if OK, use Solar Distribution = FullExterior instead. Use Output:Diagnostics, DisplayExtraWarnings; for more details.
   ** Severe  ** Problem in interior solar distribution calculation (CHKBKS)
   **   ~~~   **    Solar Distribution = FullInteriorExterior will not work in Zone=BREAK_ROOM_0
   **   ~~~   **    because one or more of vertices, such as Vertex 1 of back surface=BREAK_ROOM_0_WINDOW_3, is in front of receiving surface=BREAK_ROOM_0_WALL_2
   **   ~~~   **    (Dot Product indicator=             14.1721)
   **   ~~~   **    Check surface geometry; if OK, use Solar Distribution = FullExterior instead. Use Output:Diagnostics, DisplayExtraWarnings; for more details.
   ** Severe  ** Problem in interior solar distribution calculation (CHKBKS)
   **   ~~~   **    Solar Distribution = FullInteriorExterior will not work in Zone=BREAK_ROOM_0
   **   ~~~   **    because one or more of vertices, such as Vertex 1 of back surface=BREAK_ROOM_0_WINDOW_4, is in front of receiving surface=BREAK_ROOM_0_WALL_2
   **   ~~~   **    (Dot Product indicator=             95.2869)
   **   ~~~   **    Check surface geometry; if OK, use Solar Distribution = FullExterior instead. Use Output:Diagnostics, DisplayExtraWarnings; for more details.
   ** Severe  ** Problem in interior solar distribution calculation (CHKBKS)
   **   ~~~   **    Solar Distribution = FullInteriorExterior will not work in Zone=BREAK_ROOM_0
   **   ~~~   **    because one or more of vertices, such as Vertex 1 of back surface=BREAK_ROOM_0_WALL_1, is in front of receiving surface=BREAK_ROOM_0_WALL_3
   **   ~~~   **    (Dot Product indicator=             94.4805)
   **   ~~~   **    Check surface geometry; if OK, use Solar Distribution = FullExterior instead. Use Output:Diagnostics, DisplayExtraWarnings; for more details.
   ** Severe  ** Problem in interior solar distribution calculation (CHKBKS)
   **   ~~~   **    Solar Distribution = FullInteriorExterior will not work in Zone=BREAK_ROOM_0
   **   ~~~   **    because one or more of vertices, such as Vertex 1 of back surface=BREAK_ROOM_0_WALL_2, is in front of receiving surface=BREAK_ROOM_0_WALL_3
   **   ~~~   **    (Dot Product indicator=             94.4805)
   **   ~~~   **    Check surface geometry; if OK, use Solar Distribution = FullExterior instead. Use Output:Diagnostics, DisplayExtraWarnings; for more details.
   ** Severe  ** Problem in interior solar distribution calculation (CHKBKS)
   **   ~~~   **    Solar Distribution = FullInteriorExterior will not work in Zone=BREAK_ROOM_0
   **   ~~~   **    because one or more of vertices, such as Vertex 2 of back surface=BREAK_ROOM_0_WALL_4, is in front of receiving surface=BREAK_ROOM_0_WALL_3
   **   ~~~   **    (Dot Product indicator=             94.4805)
   **   ~~~   **    Check surface geometry; if OK, use Solar Distribution = FullExterior instead. Use Output:Diagnostics, DisplayExtraWarnings; for more details.
   ** Severe  ** Problem in interior solar distribution calculation (CHKBKS)
   **   ~~~   **    Solar Distribution = FullInteriorExterior will not work in Zone=BREAK_ROOM_0
   **   ~~~   **    because one or more of vertices, such as Vertex 1 of back surface=BREAK_ROOM_0_FLOOR, is in front of receiving surface=BREAK_ROOM_0_WALL_3
   **   ~~~   **    (Dot Product indicator=             94.4805)
   **   ~~~   **    Check surface geometry; if OK, use Solar Distribution = FullExterior instead. Use Output:Diagnostics, DisplayExtraWarnings; for more details.
   ** Severe  ** Problem in interior solar distribution calculation (CHKBKS)
   **   ~~~   **    Solar Distribution = FullInteriorExterior will not work in Zone=BREAK_ROOM_0
   **   ~~~   **    because one or more of vertices, such as Vertex 3 of back surface=BREAK_ROOM_0_CEILING, is in front of receiving surface=BREAK_ROOM_0_WALL_3
   **   ~~~   **    (Dot Product indicator=             94.4805)
   **   ~~~   **    Check surface geometry; if OK, use Solar Distribution = FullExterior instead. Use Output:Diagnostics, DisplayExtraWarnings; for more details.
   ** Severe  ** Problem in interior solar distribution calculation (CHKBKS)
   **   ~~~   **    Solar Distribution = FullInteriorExterior will not work in Zone=BREAK_ROOM_0
   **   ~~~   **    because one or more of vertices, such as Vertex 1 of back surface=BREAK_ROOM_0_WINDOW_1, is in front of receiving surface=BREAK_ROOM_0_WALL_3
   **   ~~~   **    (Dot Product indicator=             94.9198)
   **   ~~~   **    Check surface geometry; if OK, use Solar Distribution = FullExterior instead. Use Output:Diagnostics, DisplayExtraWarnings; for more details.
   ** Severe  ** Problem in interior solar distribution calculation (CHKBKS)
   **   ~~~   **    Solar Distribution = FullInteriorExterior will not work in Zone=BREAK_ROOM_0
   **   ~~~   **    because one or more of vertices, such as Vertex 1 of back surface=BREAK_ROOM_0_WINDOW_2, is in front of receiving surface=BREAK_ROOM_0_WALL_3
   **   ~~~   **    (Dot Product indicator=             80.3088)
   **   ~~~   **    Check surface geometry; if OK, use Solar Distribution = FullExterior instead. Use Output:Diagnostics, DisplayExtraWarnings; for more details.
   ** Severe  ** Problem in interior solar distribution calculation (CHKBKS)
   **   ~~~   **    Solar Distribution = FullInteriorExterior will not work in Zone=BREAK_ROOM_0
   **   ~~~   **    because one or more of vertices, such as Vertex 1 of back surface=BREAK_ROOM_0_WINDOW_4, is in front of receiving surface=BREAK_ROOM_0_WALL_3
   **   ~~~   **    (Dot Product indicator=             14.1726)
   **   ~~~   **    Check surface geometry; if OK, use Solar Distribution = FullExterior instead. Use Output:Diagnostics, DisplayExtraWarnings; for more details.
   ** Severe  ** Problem in interior solar distribution calculation (CHKBKS)
   **   ~~~   **    Solar Distribution = FullInteriorExterior will not work in Zone=BREAK_ROOM_0
   **   ~~~   **    because one or more of vertices, such as Vertex 2 of back surface=BREAK_ROOM_0_WALL_1, is in front of receiving surface=BREAK_ROOM_0_WALL_4
   **   ~~~   **    (Dot Product indicator=             94.4805)
   **   ~~~   **    Check surface geometry; if OK, use Solar Distribution = FullExterior instead. Use Output:Diagnostics, DisplayExtraWarnings; for more details.
   ** Severe  ** Problem in interior solar distribution calculation (CHKBKS)
   **   ~~~   **    Solar Distribution = FullInteriorExterior will not work in Zone=BREAK_ROOM_0
   **   ~~~   **    because one or more of vertices, such as Vertex 1 of back surface=BREAK_ROOM_0_WALL_2, is in front of receiving surface=BREAK_ROOM_0_WALL_4
   **   ~~~   **    (Dot Product indicator=             94.4805)
   **   ~~~   **    Check surface geometry; if OK, use Solar Distribution = FullExterior instead. Use Output:Diagnostics, DisplayExtraWarnings; for more details.
   ** Severe  ** Problem in interior solar distribution calculation (CHKBKS)
   **   ~~~   **    Solar Distribution = FullInteriorExterior will not work in Zone=BREAK_ROOM_0
   **   ~~~   **    because one or more of vertices, such as Vertex 1 of back surface=BREAK_ROOM_0_WALL_3, is in front of receiving surface=BREAK_ROOM_0_WALL_4
   **   ~~~   **    (Dot Product indicator=             94.4805)
   **   ~~~   **    Check surface geometry; if OK, use Solar Distribution = FullExterior instead. Use Output:Diagnostics, DisplayExtraWarnings; for more details.
   ** Severe  ** Problem in interior solar distribution calculation (CHKBKS)
   **   ~~~   **    Solar Distribution = FullInteriorExterior will not work in Zone=BREAK_ROOM_0
   **   ~~~   **    because one or more of vertices, such as Vertex 2 of back surface=BREAK_ROOM_0_FLOOR, is in front of receiving surface=BREAK_ROOM_0_WALL_4
   **   ~~~   **    (Dot Product indicator=             94.4805)
   **   ~~~   **    Check surface geometry; if OK, use Solar Distribution = FullExterior instead. Use Output:Diagnostics, DisplayExtraWarnings; for more details.
   ** Severe  ** Problem in interior solar distribution calculation (CHKBKS)
   **   ~~~   **    Solar Distribution = FullInteriorExterior will not work in Zone=BREAK_ROOM_0
   **   ~~~   **    because one or more of vertices, such as Vertex 2 of back surface=BREAK_ROOM_0_CEILING, is in front of receiving surface=BREAK_ROOM_0_WALL_4
   **   ~~~   **    (Dot Product indicator=             94.4805)
   **   ~~~   **    Check surface geometry; if OK, use Solar Distribution = FullExterior instead. Use Output:Diagnostics, DisplayExtraWarnings; for more details.
   ** Severe  ** Problem in interior solar distribution calculation (CHKBKS)
   **   ~~~   **    Solar Distribution = FullInteriorExterior will not work in Zone=BREAK_ROOM_0
   **   ~~~   **    because one or more of vertices, such as Vertex 1 of back surface=BREAK_ROOM_0_WINDOW_1, is in front of receiving surface=BREAK_ROOM_0_WALL_4
   **   ~~~   **    (Dot Product indicator=             14.1721)
   **   ~~~   **    Check surface geometry; if OK, use Solar Distribution = FullExterior instead. Use Output:Diagnostics, DisplayExtraWarnings; for more details.
   ** Severe  ** Problem in interior solar distribution calculation (CHKBKS)
   **   ~~~   **    Solar Distribution = FullInteriorExterior will not work in Zone=BREAK_ROOM_0
   **   ~~~   **    because one or more of vertices, such as Vertex 1 of back surface=BREAK_ROOM_0_WINDOW_2, is in front of receiving surface=BREAK_ROOM_0_WALL_4
   **   ~~~   **    (Dot Product indicator=             95.2869)
   **   ~~~   **    Check surface geometry; if OK, use Solar Distribution = FullExterior instead. Use Output:Diagnostics, DisplayExtraWarnings; for more details.
   ** Severe  ** Problem in interior solar distribution calculation (CHKBKS)
   **   ~~~   **    Solar Distribution = FullInteriorExterior will not work in Zone=BREAK_ROOM_0
[...]
   **   ~~~   **  ...Occurrence info = YEAR ROUND RUN PERIOD, 04/11 09:53 - 10:00
   **   ~~~   ** ... Possible reasons for low outlet air dry-bulb temperatures are: This DX coil
   **   ~~~   **    1) may have a low inlet air dry-bulb temperature. Inlet air temperature = 24.488 C.
   **   ~~~   **    2) may have a low air flow rate per watt of cooling capacity. Check inputs.
   **   ~~~   **    3) is used as part of a HX assisted cooling coil which uses a high sensible effectiveness. Check inputs.
   ** Warning ** CalcDoe2DXCoil: Coil:Cooling:DX:SingleSpeed="LOBBY_0_Z1_COOLINGCOILDX" - Air volume flow rate per watt of rated total cooling capacity is out of range at 1.018E-005 m3/s/W.
   **   ~~~   **  Environment=YEAR ROUND RUN PERIOD, at Simulation time=04/11 12:00 - 12:15
   **   ~~~   ** Expected range for VolumeFlowPerRatedTotalCapacity=[2.684E-005--6.713E-005]
   **   ~~~   ** Possible causes include inconsistent air flow rates in system components,
   **   ~~~   ** or variable air volume [VAV] system using incorrect coil type.
   ** Warning ** CalcDoe2DXCoil: Coil:Cooling:DX:SingleSpeed "LOBBY_0_Z1_COOLINGCOILDX" - Full load outlet air dry-bulb temperature < 2C. This indicates the possibility of coil frost/freeze. Outlet temperature = -43.53 C.
   **   ~~~   **  ...Occurrence info = YEAR ROUND RUN PERIOD, 04/11 12:00 - 12:15
   **   ~~~   ** ... Possible reasons for low outlet air dry-bulb temperatures are: This DX coil
   **   ~~~   **    1) may have a low inlet air dry-bulb temperature. Inlet air temperature = 24.129 C.
   **   ~~~   **    2) may have a low air flow rate per watt of cooling capacity. Check inputs.
   **   ~~~   **    3) is used as part of a HX assisted cooling coil which uses a high sensible effectiveness. Check inputs.
   ************* Simulation Error Summary *************
   ************* There are 1 unused schedules in input.
   ************* Use Output:Diagnostics,DisplayUnusedSchedules; to see them.
   *************
   ************* ===== Recurring Error Summary =====
   ************* The following recurring error messages occurred.
   *************
   *************  ** Warning ** CalcDoe2DXCoil: Coil:Cooling:DX:SingleSpeed="LOBBY_0_Z1_COOLINGCOILDX": Energy Input Ratio Modifier curve (function of temperature) output is negative warning continues...
   *************  **   ~~~   **   This error occurred 231 total times;
   *************  **   ~~~   **   during Warmup 1 times;
   *************  **   ~~~   **   during Sizing 0 times.
   *************  **   ~~~   **   Max=-0.000118  Min=-0.033347
   *************
   *************  ** Warning ** CalcDoe2DXCoil: Coil:Cooling:DX:SingleSpeed="CONFERENCE_0_Z2_COOLINGCOILDX": Energy Input Ratio Modifier curve (function of temperature) output is negative warning continues...
   *************  **   ~~~   **   This error occurred 201 total times;
   *************  **   ~~~   **   during Warmup 1 times;
   *************  **   ~~~   **   during Sizing 0 times.
   *************  **   ~~~   **   Max=-0.000452  Min=-0.033347
   *************
   *************  ** Warning ** CalcDoe2DXCoil: Coil:Cooling:DX:SingleSpeed="BREAK_ROOM_0_Z3_COOLINGCOILDX": Energy Input Ratio Modifier curve (function of temperature) output is negative warning continues...
   *************  **   ~~~   **   This error occurred 195 total times;
   *************  **   ~~~   **   during Warmup 1 times;
   *************  **   ~~~   **   during Sizing 0 times.
   *************  **   ~~~   **   Max=-0.000452  Min=-0.033347
   *************
   *************  ** Warning ** CalcDoe2DXCoil: Coil:Cooling:DX:SingleSpeed="MECHANICAL_0_Z4_COOLINGCOILDX": Energy Input Ratio Modifier curve (function of temperature) output is negative warning continues...
   *************  **   ~~~   **   This error occurred 201 total times;
   *************  **   ~~~   **   during Warmup 1 times;
   *************  **   ~~~   **   during Sizing 0 times.
   *************  **   ~~~   **   Max=-0.000452  Min=-0.033347
   *************
   *************  ** Warning ** CalcDoe2DXCoil: Coil:Cooling:DX:SingleSpeed="LOBBY_1_Z5_COOLINGCOILDX": Energy Input Ratio Modifier curve (function of temperature) output is negative warning continues...
   *************  **   ~~~   **   This error occurred 201 total times;
   *************  **   ~~~   **   during Warmup 1 times;
   *************  **   ~~~   **   during Sizing 0 times.
   *************  **   ~~~   **   Max=-0.000452  Min=-0.033347
   *************
   *************  ** Warning ** CalcDoe2DXCoil: Coil:Cooling:DX:SingleSpeed="CONFERENCE_1_Z6_COOLINGCOILDX": Energy Input Ratio Modifier curve (function of temperature) output is negative warning continues...
   *************  **   ~~~   **   This error occurred 201 total times;
   *************  **   ~~~   **   during Warmup 1 times;
   *************  **   ~~~   **   during Sizing 0 times.
   *************  **   ~~~   **   Max=-0.000452  Min=-0.033347
   *************
   *************  ** Warning ** CalcDoe2DXCoil: Coil:Cooling:DX:SingleSpeed="BREAK_ROOM_1_Z7_COOLINGCOILDX": Energy Input Ratio Modifier curve (function of temperature) output is negative warning continues...
   *************  **   ~~~   **   This error occurred 161 total times;
   *************  **   ~~~   **   during Warmup 1 times;
   *************  **   ~~~   **   during Sizing 0 times.
   *************  **   ~~~   **   Max=-0.000452  Min=-0.033347
   *************
   *************  ** Warning ** CalcDoe2DXCoil: Coil:Cooling:DX:SingleSpeed="MECHANICAL_1_Z8_COOLINGCOILDX": Energy Input Ratio Modifier curve (function of temperature) output is negative warning continues...
   *************  **   ~~~   **   This error occurred 201 total times;
   *************  **   ~~~   **   during Warmup 1 times;
   *************  **   ~~~   **   during Sizing 0 times.
   *************  **   ~~~   **   Max=-0.000452  Min=-0.033347
   *************
   *************  ** Warning ** CalcDoe2DXCoil: Coil:Cooling:DX:SingleSpeed="LOBBY_2_Z9_COOLINGCOILDX": Energy Input Ratio Modifier curve (function of temperature) output is negative warning continues...
   *************  **   ~~~   **   This error occurred 201 total times;
   *************  **   ~~~   **   during Warmup 1 times;
   *************  **   ~~~   **   during Sizing 0 times.
   *************  **   ~~~   **   Max=-0.000452  Min=-0.033347
   *************
   *************  ** Warning ** CalcDoe2DXCoil: Coil:Cooling:DX:SingleSpeed="CONFERENCE_2_Z10_COOLINGCOILDX": Energy Input Ratio Modifier curve (function of temperature) output is negative warning continues...
   *************  **   ~~~   **   This error occurred 179 total times;
   *************  **   ~~~   **   during Warmup 1 times;
   *************  **   ~~~   **   during Sizing 0 times.
   *************  **   ~~~   **   Max=-0.000452  Min=-0.033347
   *************
   *************  ** Warning ** CalcDoe2DXCoil: Coil:Cooling:DX:SingleSpeed="BREAK_ROOM_2_Z11_COOLINGCOILDX": Energy Input Ratio Modifier curve (function of temperature) output is negative warning continues...
   *************  **   ~~~   **   This error occurred 173 total times;
   *************  **   ~~~   **   during Warmup 1 times;
   *************  **   ~~~   **   during Sizing 0 times.
   *************  **   ~~~   **   Max=-0.000452  Min=-0.033347
   *************
   *************  ** Warning ** CalcDoe2DXCoil: Coil:Cooling:DX:SingleSpeed="MECHANICAL_2_Z12_COOLINGCOILDX": Energy Input Ratio Modifier curve (function of temperature) output is negative warning continues...
   *************  **   ~~~   **   This error occurred 201 total times;
   *************  **   ~~~   **   during Warmup 1 times;
   *************  **   ~~~   **   during Sizing 0 times.
   *************  **   ~~~   **   Max=-0.000452  Min=-0.033347
   *************
   *************  ** Warning ** CalcDoe2DXCoil: Coil:Cooling:DX:SingleSpeed="BREAK_ROOM_1_Z7_COOLINGCOILDX" - Air volume flow rate per watt of rated total cooling capacity is out of range error continues...
   *************  **   ~~~   **   This error occurred 59732 total times;
   *************  **   ~~~   **   during Warmup 0 times;
   *************  **   ~~~   **   during Sizing 0 times.
   *************  **   ~~~   **   Max=0.000011  Min=0.000010
   *************
   *************  ** Warning ** CalcDoe2DXCoil: Coil:Cooling:DX:SingleSpeed="BREAK_ROOM_1_Z7_COOLINGCOILDX" - Full load outlet temperature indicates a possibility of frost/freeze error continues. Outlet air temperature statistics follow:
   *************  **   ~~~   **   This error occurred 22974 total times;
   *************  **   ~~~   **   during Warmup 0 times;
   *************  **   ~~~   **   during Sizing 0 times.
   *************  **   ~~~   **   Max=-11.389243  Min=-50.966347
   *************
   *************  ** Warning ** CalcDoe2DXCoil: Coil:Cooling:DX:SingleSpeed="BREAK_ROOM_2_Z11_COOLINGCOILDX" - Air volume flow rate per watt of rated total cooling capacity is out of range error continues...
   *************  **   ~~~   **   This error occurred 57568 total times;
   *************  **   ~~~   **   during Warmup 0 times;
   *************  **   ~~~   **   during Sizing 0 times.
   *************  **   ~~~   **   Max=0.000011  Min=0.000010
   *************
   *************  ** Warning ** CalcDoe2DXCoil: Coil:Cooling:DX:SingleSpeed="BREAK_ROOM_2_Z11_COOLINGCOILDX" - Full load outlet temperature indicates a possibility of frost/freeze error continues. Outlet air temperature statistics follow:
   *************  **   ~~~   **   This error occurred 22170 total times;
   *************  **   ~~~   **   during Warmup 0 times;
   *************  **   ~~~   **   during Sizing 0 times.
   *************  **   ~~~   **   Max=-13.305197  Min=-50.947469
   *************
   *************  ** Warning ** CalcDoe2DXCoil: Coil:Cooling:DX:SingleSpeed="BREAK_ROOM_0_Z3_COOLINGCOILDX" - Air volume flow rate per watt of rated total cooling capacity is out of range error continues...
   *************  **   ~~~   **   This error occurred 56364 total times;
   *************  **   ~~~   **   during Warmup 0 times;
   *************  **   ~~~   **   during Sizing 0 times.
   *************  **   ~~~   **   Max=0.000011  Min=0.000010
   *************
   *************  ** Warning ** CalcDoe2DXCoil: Coil:Cooling:DX:SingleSpeed="CONFERENCE_2_Z10_COOLINGCOILDX" - Air volume flow rate per watt of rated total cooling capacity is out of range error continues...
   *************  **   ~~~   **   This error occurred 56640 total times;
   *************  **   ~~~   **   during Warmup 0 times;
   *************  **   ~~~   **   during Sizing 0 times.
   *************  **   ~~~   **   Max=0.000011  Min=0.000010
   *************
   *************  ** Warning ** CalcDoe2DXCoil: Coil:Cooling:DX:SingleSpeed="BREAK_ROOM_0_Z3_COOLINGCOILDX" - Full load outlet temperature indicates a possibility of frost/freeze error continues. Outlet air temperature statistics follow:
   *************  **   ~~~   **   This error occurred 21680 total times;
   *************  **   ~~~   **   during Warmup 0 times;
   *************  **   ~~~   **   during Sizing 0 times.
   *************  **   ~~~   **   Max=-13.578118  Min=-51.247068
   *************
   *************  ** Warning ** CalcDoe2DXCoil: Coil:Cooling:DX:SingleSpeed="CONFERENCE_2_Z10_COOLINGCOILDX" - Full load outlet temperature indicates a possibility of frost/freeze error continues. Outlet air temperature statistics follow:
   *************  **   ~~~   **   This error occurred 21791 total times;
   *************  **   ~~~   **   during Warmup 0 times;
   *************  **   ~~~   **   during Sizing 0 times.
   *************  **   ~~~   **   Max=-9.653692  Min=-51.198226
   *************
   *************  ** Warning ** CalcDoe2DXCoil: Coil:Cooling:DX:SingleSpeed="LOBBY_2_Z9_COOLINGCOILDX" - Air volume flow rate per watt of rated total cooling capacity is out of range error continues...
   *************  **   ~~~   **   This error occurred 55496 total times;
   *************  **   ~~~   **   during Warmup 0 times;
   *************  **   ~~~   **   during Sizing 0 times.
   *************  **   ~~~   **   Max=0.000011  Min=0.000010
   *************
   *************  ** Warning ** CalcDoe2DXCoil: Coil:Cooling:DX:SingleSpeed="LOBBY_2_Z9_COOLINGCOILDX" - Full load outlet temperature indicates a possibility of frost/freeze error continues. Outlet air temperature statistics follow:
   *************  **   ~~~   **   This error occurred 21323 total times;
   *************  **   ~~~   **   during Warmup 0 times;
   *************  **   ~~~   **   during Sizing 0 times.
   *************  **   ~~~   **   Max=-14.303805  Min=-51.802037
   *************
   *************  ** Warning ** CalcDoe2DXCoil: Coil:Cooling:DX:SingleSpeed="MECHANICAL_2_Z12_COOLINGCOILDX" - Air volume flow rate per watt of rated total cooling capacity is out of range error continues...
   *************  **   ~~~   **   This error occurred 54592 total times;
   *************  **   ~~~   **   during Warmup 0 times;
   *************  **   ~~~   **   during Sizing 0 times.
   *************  **   ~~~   **   Max=0.000011  Min=0.000010
   *************
   *************  ** Warning ** CalcDoe2DXCoil: Coil:Cooling:DX:SingleSpeed="MECHANICAL_2_Z12_COOLINGCOILDX" - Full load outlet temperature indicates a possibility of frost/freeze error continues. Outlet air temperature statistics follow:
   *************  **   ~~~   **   This error occurred 20947 total times;
   *************  **   ~~~   **   during Warmup 0 times;
   *************  **   ~~~   **   during Sizing 0 times.
   *************  **   ~~~   **   Max=-15.006650  Min=-51.494663
   *************
   *************  ** Warning ** CalcDoe2DXCoil: Coil:Cooling:DX:SingleSpeed="CONFERENCE_1_Z6_COOLINGCOILDX" - Air volume flow rate per watt of rated total cooling capacity is out of range error continues...
   *************  **   ~~~   **   This error occurred 53752 total times;
   *************  **   ~~~   **   during Warmup 0 times;
   *************  **   ~~~   **   during Sizing 0 times.
   *************  **   ~~~   **   Max=0.000011  Min=0.000010
   *************
   *************  ** Warning ** CalcDoe2DXCoil: Coil:Cooling:DX:SingleSpeed="CONFERENCE_1_Z6_COOLINGCOILDX" - Full load outlet temperature indicates a possibility of frost/freeze error continues. Outlet air temperature statistics follow:
   *************  **   ~~~   **   This error occurred 20645 total times;
   *************  **   ~~~   **   during Warmup 0 times;
   *************  **   ~~~   **   during Sizing 0 times.
   *************  **   ~~~   **   Max=-10.489261  Min=-50.631783
   *************
   *************  ** Warning ** CalcDoe2DXCoil: Coil:Cooling:DX:SingleSpeed="CONFERENCE_0_Z2_COOLINGCOILDX" - Air volume flow rate per watt of rated total cooling capacity is out of range error continues...
   *************  **   ~~~   **   This error occurred 52270 total times;
   *************  **   ~~~   **   during Warmup 0 times;
   *************  **   ~~~   **   during Sizing 0 times.
   *************  **   ~~~   **   Max=0.000011  Min=0.000010
   *************
   *************  ** Warning ** CalcDoe2DXCoil: Coil:Cooling:DX:SingleSpeed="LOBBY_1_Z5_COOLINGCOILDX" - Air volume flow rate per watt of rated total cooling capacity is out of range error continues...
   *************  **   ~~~   **   This error occurred 53590 total times;
   *************  **   ~~~   **   during Warmup 0 times;
   *************  **   ~~~   **   during Sizing 0 times.
   *************  **   ~~~   **   Max=0.000011  Min=0.000010
   *************
   *************  ** Warning ** CalcDoe2DXCoil: Coil:Cooling:DX:SingleSpeed="CONFERENCE_0_Z2_COOLINGCOILDX" - Full load outlet temperature indicates a possibility of frost/freeze error continues. Outlet air temperature statistics follow:
   *************  **   ~~~   **   This error occurred 20064 total times;
   *************  **   ~~~   **   during Warmup 0 times;
   *************  **   ~~~   **   during Sizing 0 times.
   *************  **   ~~~   **   Max=-10.418732  Min=-50.332846
   *************
   *************  ** Warning ** CalcDoe2DXCoil: Coil:Cooling:DX:SingleSpeed="LOBBY_1_Z5_COOLINGCOILDX" - Full load outlet temperature indicates a possibility of frost/freeze error continues. Outlet air temperature statistics follow:
   *************  **   ~~~   **   This error occurred 20588 total times;
   *************  **   ~~~   **   during Warmup 0 times;
   *************  **   ~~~   **   during Sizing 0 times.
   *************  **   ~~~   **   Max=-15.417881  Min=-51.008751
   *************
   *************  ** Warning ** CalcDoe2DXCoil: Coil:Cooling:DX:SingleSpeed="MECHANICAL_0_Z4_COOLINGCOILDX" - Air volume flow rate per watt of rated total cooling capacity is out of range error continues...
   *************  **   ~~~   **   This error occurred 49874 total times;
   *************  **   ~~~   **   during Warmup 0 times;
   *************  **   ~~~   **   during Sizing 0 times.
   *************  **   ~~~   **   Max=0.000011  Min=0.000010
   *************
   *************  ** Warning ** CalcDoe2DXCoil: Coil:Cooling:DX:SingleSpeed="MECHANICAL_0_Z4_COOLINGCOILDX" - Full load outlet temperature indicates a possibility of frost/freeze error continues. Outlet air temperature statistics follow:
   *************  **   ~~~   **   This error occurred 19079 total times;
   *************  **   ~~~   **   during Warmup 0 times;
   *************  **   ~~~   **   during Sizing 0 times.
   *************  **   ~~~   **   Max=-16.340305  Min=-50.901956
   *************
   *************  ** Warning ** CalcDoe2DXCoil: Coil:Cooling:DX:SingleSpeed="MECHANICAL_1_Z8_COOLINGCOILDX" - Air volume flow rate per watt of rated total cooling capacity is out of range error continues...
   *************  **   ~~~   **   This error occurred 52388 total times;
   *************  **   ~~~   **   during Warmup 0 times;
   *************  **   ~~~   **   during Sizing 0 times.
   *************  **   ~~~   **   Max=0.000011  Min=0.000010
   *************
   *************  ** Warning ** CalcDoe2DXCoil: Coil:Cooling:DX:SingleSpeed="MECHANICAL_1_Z8_COOLINGCOILDX" - Full load outlet temperature indicates a possibility of frost/freeze error continues. Outlet air temperature statistics follow:
   *************  **   ~~~   **   This error occurred 20095 total times;
   *************  **   ~~~   **   during Warmup 0 times;
   *************  **   ~~~   **   during Sizing 0 times.
   *************  **   ~~~   **   Max=-15.332102  Min=-51.774414
   *************
   *************  ** Warning ** CalcDoe2DXCoil: Coil:Cooling:DX:SingleSpeed="LOBBY_0_Z1_COOLINGCOILDX" - Air volume flow rate per watt of rated total cooling capacity is out of range error continues...
   *************  **   ~~~   **   This error occurred 51046 total times;
   *************  **   ~~~   **   during Warmup 0 times;
   *************  **   ~~~   **   during Sizing 0 times.
   *************  **   ~~~   **   Max=0.000011  Min=0.000010
   *************
   *************  ** Warning ** CalcDoe2DXCoil: Coil:Cooling:DX:SingleSpeed="LOBBY_0_Z1_COOLINGCOILDX" - Full load outlet temperature indicates a possibility of frost/freeze error continues. Outlet air temperature statistics follow:
   *************  **   ~~~   **   This error occurred 19599 total times;
   *************  **   ~~~   **   during Warmup 0 times;
   *************  **   ~~~   **   during Sizing 0 times.
   *************  **   ~~~   **   Max=-16.609610  Min=-50.877099
   *************
   ************* EnergyPlus Warmup Error Summary. During Warmup: 0 Warning; 0 Severe Errors.
   ************* EnergyPlus Sizing Error Summary. During Sizing: 0 Warning; 0 Severe Errors.
   ************* EnergyPlus Completed Successfully-- 906733 Warning; 525 Severe Errors; Elapsed Time=00hr 00min 21.00sec
