Program Version,EnergyPlus, Version 24.2.0-94a887817b, YMD=2025.11.02 19:20
! This file shows details about the branches, nodes, and other
! elements of the flow connections.
! This file is intended for use in "debugging" potential problems
! that may also be detected by the program, but may be more easily
! identified by "eye".
! This file is also intended to support software which draws a
! schematic diagram of the HVAC system.
! ===============================================================
! #Nodes,<Number of Unique Nodes>
 #Nodes,154
! <Node>,<NodeNumber>,<Node Name>,<Node Fluid Type>,<# Times Node Referenced After Definition>
 Node,1,CONFERENCE_0_Z1_ADUOUTLET,Air,4
 Node,2,OFFICE_OPEN_0_Z2_ADUOUTLET,Air,4
 Node,3,OFFICE_PRIVATE_0_Z3_ADUOUTLET,Air,4
 Node,4,BREAK_ROOM_1_Z4_ADUOUTLET,Air,4
 Node,5,OFFICE_PRIVATE_1_Z5_ADUOUTLET,Air,4
 Node,6,STORAGE_1_Z6_ADUOUTLET,Air,4
 Node,7,CONFERENCE_2_Z7_ADUOUTLET,Air,4
 Node,8,BREAK_ROOM_2_Z8_ADUOUTLET,Air,4
 Node,9,STORAGE_2_Z9_ADUOUTLET,Air,4
 Node,10,LOBBY_3_Z10_ADUOUTLET,Air,4
 Node,11,CONFERENCE_3_Z11_ADUOUTLET,Air,4
 Node,12,MECHANICAL_4_Z12_ADUOUTLET,Air,4
 Node,13,OFFICE_OPEN_4_Z13_ADUOUTLET,Air,4
 Node,14,STORAGE_4_Z14_ADUOUTLET,Air,4
 Node,15,CONFERENCE_0_Z1_SUPPLYINLET,Air,3
 Node,16,CONFERENCE_0_Z1_COOLC-HEATCNODE,Air,6
 Node,17,CONFERENCE_0_Z1_HEATC-FANNODE,Air,5
 Node,18,CONFERENCE_0_Z1_SUPPLYEQUIPMENTOUTLETNODE,Air,3
 Node,19,OFFICE_OPEN_0_Z2_SUPPLYINLET,Air,3
 Node,20,OFFICE_OPEN_0_Z2_COOLC-HEATCNODE,Air,6
 Node,21,OFFICE_OPEN_0_Z2_HEATC-FANNODE,Air,5
 Node,22,OFFICE_OPEN_0_Z2_SUPPLYEQUIPMENTOUTLETNODE,Air,3
 Node,23,OFFICE_PRIVATE_0_Z3_SUPPLYINLET,Air,3
 Node,24,OFFICE_PRIVATE_0_Z3_COOLC-HEATCNODE,Air,6
 Node,25,OFFICE_PRIVATE_0_Z3_HEATC-FANNODE,Air,5
 Node,26,OFFICE_PRIVATE_0_Z3_SUPPLYEQUIPMENTOUTLETNODE,Air,3
 Node,27,BREAK_ROOM_1_Z4_SUPPLYINLET,Air,3
 Node,28,BREAK_ROOM_1_Z4_COOLC-HEATCNODE,Air,6
 Node,29,BREAK_ROOM_1_Z4_HEATC-FANNODE,Air,5
 Node,30,BREAK_ROOM_1_Z4_SUPPLYEQUIPMENTOUTLETNODE,Air,3
 Node,31,OFFICE_PRIVATE_1_Z5_SUPPLYINLET,Air,3
 Node,32,OFFICE_PRIVATE_1_Z5_COOLC-HEATCNODE,Air,6
 Node,33,OFFICE_PRIVATE_1_Z5_HEATC-FANNODE,Air,5
 Node,34,OFFICE_PRIVATE_1_Z5_SUPPLYEQUIPMENTOUTLETNODE,Air,3
 Node,35,STORAGE_1_Z6_SUPPLYINLET,Air,3
 Node,36,STORAGE_1_Z6_COOLC-HEATCNODE,Air,6
 Node,37,STORAGE_1_Z6_HEATC-FANNODE,Air,5
 Node,38,STORAGE_1_Z6_SUPPLYEQUIPMENTOUTLETNODE,Air,3
 Node,39,CONFERENCE_2_Z7_SUPPLYINLET,Air,3
 Node,40,CONFERENCE_2_Z7_COOLC-HEATCNODE,Air,6
 Node,41,CONFERENCE_2_Z7_HEATC-FANNODE,Air,5
 Node,42,CONFERENCE_2_Z7_SUPPLYEQUIPMENTOUTLETNODE,Air,3
 Node,43,BREAK_ROOM_2_Z8_SUPPLYINLET,Air,3
 Node,44,BREAK_ROOM_2_Z8_COOLC-HEATCNODE,Air,6
 Node,45,BREAK_ROOM_2_Z8_HEATC-FANNODE,Air,5
 Node,46,BREAK_ROOM_2_Z8_SUPPLYEQUIPMENTOUTLETNODE,Air,3
 Node,47,STORAGE_2_Z9_SUPPLYINLET,Air,3
 Node,48,STORAGE_2_Z9_COOLC-HEATCNODE,Air,6
 Node,49,STORAGE_2_Z9_HEATC-FANNODE,Air,5
 Node,50,STORAGE_2_Z9_SUPPLYEQUIPMENTOUTLETNODE,Air,3
 Node,51,LOBBY_3_Z10_SUPPLYINLET,Air,3
 Node,52,LOBBY_3_Z10_COOLC-HEATCNODE,Air,6
 Node,53,LOBBY_3_Z10_HEATC-FANNODE,Air,5
 Node,54,LOBBY_3_Z10_SUPPLYEQUIPMENTOUTLETNODE,Air,3
 Node,55,CONFERENCE_3_Z11_SUPPLYINLET,Air,3
 Node,56,CONFERENCE_3_Z11_COOLC-HEATCNODE,Air,6
 Node,57,CONFERENCE_3_Z11_HEATC-FANNODE,Air,5
 Node,58,CONFERENCE_3_Z11_SUPPLYEQUIPMENTOUTLETNODE,Air,3
 Node,59,MECHANICAL_4_Z12_SUPPLYINLET,Air,3
 Node,60,MECHANICAL_4_Z12_COOLC-HEATCNODE,Air,6
 Node,61,MECHANICAL_4_Z12_HEATC-FANNODE,Air,5
 Node,62,MECHANICAL_4_Z12_SUPPLYEQUIPMENTOUTLETNODE,Air,3
 Node,63,OFFICE_OPEN_4_Z13_SUPPLYINLET,Air,3
 Node,64,OFFICE_OPEN_4_Z13_COOLC-HEATCNODE,Air,6
 Node,65,OFFICE_OPEN_4_Z13_HEATC-FANNODE,Air,5
 Node,66,OFFICE_OPEN_4_Z13_SUPPLYEQUIPMENTOUTLETNODE,Air,3
 Node,67,STORAGE_4_Z14_SUPPLYINLET,Air,3
 Node,68,STORAGE_4_Z14_COOLC-HEATCNODE,Air,6
 Node,69,STORAGE_4_Z14_HEATC-FANNODE,Air,5
 Node,70,STORAGE_4_Z14_SUPPLYEQUIPMENTOUTLETNODE,Air,3
 Node,71,CONFERENCE_0 AIR NODE,Air,0
 Node,72,CONFERENCE_0_Z1_RETURNAIR,Air,1
 Node,73,OFFICE_OPEN_0 AIR NODE,Air,0
 Node,74,OFFICE_OPEN_0_Z2_RETURNAIR,Air,1
 Node,75,OFFICE_PRIVATE_0 AIR NODE,Air,0
 Node,76,OFFICE_PRIVATE_0_Z3_RETURNAIR,Air,1
 Node,77,BREAK_ROOM_1 AIR NODE,Air,0
 Node,78,BREAK_ROOM_1_Z4_RETURNAIR,Air,1
 Node,79,OFFICE_PRIVATE_1 AIR NODE,Air,0
 Node,80,OFFICE_PRIVATE_1_Z5_RETURNAIR,Air,1
 Node,81,STORAGE_1 AIR NODE,Air,0
 Node,82,STORAGE_1_Z6_RETURNAIR,Air,1
 Node,83,CONFERENCE_2 AIR NODE,Air,0
 Node,84,CONFERENCE_2_Z7_RETURNAIR,Air,1
 Node,85,BREAK_ROOM_2 AIR NODE,Air,0
 Node,86,BREAK_ROOM_2_Z8_RETURNAIR,Air,1
 Node,87,STORAGE_2 AIR NODE,Air,0
 Node,88,STORAGE_2_Z9_RETURNAIR,Air,1
 Node,89,LOBBY_3 AIR NODE,Air,0
 Node,90,LOBBY_3_Z10_RETURNAIR,Air,1
 Node,91,CONFERENCE_3 AIR NODE,Air,0
 Node,92,CONFERENCE_3_Z11_RETURNAIR,Air,1
 Node,93,MECHANICAL_4 AIR NODE,Air,0
 Node,94,MECHANICAL_4_Z12_RETURNAIR,Air,1
 Node,95,OFFICE_OPEN_4 AIR NODE,Air,0
 Node,96,OFFICE_OPEN_4_Z13_RETURNAIR,Air,1
 Node,97,STORAGE_4 AIR NODE,Air,0
 Node,98,STORAGE_4_Z14_RETURNAIR,Air,1
 Node,99,CONFERENCE_0_Z1_ZONEEQUIPMENTINLET,Air,2
 Node,100,OFFICE_OPEN_0_Z2_ZONEEQUIPMENTINLET,Air,2
 Node,101,OFFICE_PRIVATE_0_Z3_ZONEEQUIPMENTINLET,Air,2
 Node,102,BREAK_ROOM_1_Z4_ZONEEQUIPMENTINLET,Air,2
 Node,103,OFFICE_PRIVATE_1_Z5_ZONEEQUIPMENTINLET,Air,2
 Node,104,STORAGE_1_Z6_ZONEEQUIPMENTINLET,Air,2
 Node,105,CONFERENCE_2_Z7_ZONEEQUIPMENTINLET,Air,2
 Node,106,BREAK_ROOM_2_Z8_ZONEEQUIPMENTINLET,Air,2
 Node,107,STORAGE_2_Z9_ZONEEQUIPMENTINLET,Air,2
 Node,108,LOBBY_3_Z10_ZONEEQUIPMENTINLET,Air,2
 Node,109,CONFERENCE_3_Z11_ZONEEQUIPMENTINLET,Air,2
 Node,110,MECHANICAL_4_Z12_ZONEEQUIPMENTINLET,Air,2
 Node,111,OFFICE_OPEN_4_Z13_ZONEEQUIPMENTINLET,Air,2
 Node,112,STORAGE_4_Z14_ZONEEQUIPMENTINLET,Air,2
 Node,113,CONFERENCE_0_Z1_ZONEEQUIPMENTOUTLETNODE,Air,2
 Node,114,OFFICE_OPEN_0_Z2_ZONEEQUIPMENTOUTLETNODE,Air,2
 Node,115,OFFICE_PRIVATE_0_Z3_ZONEEQUIPMENTOUTLETNODE,Air,2
 Node,116,BREAK_ROOM_1_Z4_ZONEEQUIPMENTOUTLETNODE,Air,2
 Node,117,OFFICE_PRIVATE_1_Z5_ZONEEQUIPMENTOUTLETNODE,Air,2
 Node,118,STORAGE_1_Z6_ZONEEQUIPMENTOUTLETNODE,Air,2
 Node,119,CONFERENCE_2_Z7_ZONEEQUIPMENTOUTLETNODE,Air,2
 Node,120,BREAK_ROOM_2_Z8_ZONEEQUIPMENTOUTLETNODE,Air,2
 Node,121,STORAGE_2_Z9_ZONEEQUIPMENTOUTLETNODE,Air,2
 Node,122,LOBBY_3_Z10_ZONEEQUIPMENTOUTLETNODE,Air,2
 Node,123,CONFERENCE_3_Z11_ZONEEQUIPMENTOUTLETNODE,Air,2
 Node,124,MECHANICAL_4_Z12_ZONEEQUIPMENTOUTLETNODE,Air,2
 Node,125,OFFICE_OPEN_4_Z13_ZONEEQUIPMENTOUTLETNODE,Air,2
 Node,126,STORAGE_4_Z14_ZONEEQUIPMENTOUTLETNODE,Air,2
 Node,127,CONFERENCE_0_Z1_TERMINALINLET,Air,1
 Node,128,OFFICE_OPEN_0_Z2_TERMINALINLET,Air,1
 Node,129,OFFICE_PRIVATE_0_Z3_TERMINALINLET,Air,1
 Node,130,BREAK_ROOM_1_Z4_TERMINALINLET,Air,1
 Node,131,OFFICE_PRIVATE_1_Z5_TERMINALINLET,Air,1
 Node,132,STORAGE_1_Z6_TERMINALINLET,Air,1
 Node,133,CONFERENCE_2_Z7_TERMINALINLET,Air,1
 Node,134,BREAK_ROOM_2_Z8_TERMINALINLET,Air,1
 Node,135,STORAGE_2_Z9_TERMINALINLET,Air,1
 Node,136,LOBBY_3_Z10_TERMINALINLET,Air,1
 Node,137,CONFERENCE_3_Z11_TERMINALINLET,Air,1
 Node,138,MECHANICAL_4_Z12_TERMINALINLET,Air,1
 Node,139,OFFICE_OPEN_4_Z13_TERMINALINLET,Air,1
 Node,140,STORAGE_4_Z14_TERMINALINLET,Air,1
 Node,141,CONFERENCE_0_Z1_TERMINALOUTLET,Air,1
 Node,142,OFFICE_OPEN_0_Z2_TERMINALOUTLET,Air,1
 Node,143,OFFICE_PRIVATE_0_Z3_TERMINALOUTLET,Air,1
 Node,144,BREAK_ROOM_1_Z4_TERMINALOUTLET,Air,1
 Node,145,OFFICE_PRIVATE_1_Z5_TERMINALOUTLET,Air,1
 Node,146,STORAGE_1_Z6_TERMINALOUTLET,Air,1
 Node,147,CONFERENCE_2_Z7_TERMINALOUTLET,Air,1
 Node,148,BREAK_ROOM_2_Z8_TERMINALOUTLET,Air,1
 Node,149,STORAGE_2_Z9_TERMINALOUTLET,Air,1
 Node,150,LOBBY_3_Z10_TERMINALOUTLET,Air,1
 Node,151,CONFERENCE_3_Z11_TERMINALOUTLET,Air,1
 Node,152,MECHANICAL_4_Z12_TERMINALOUTLET,Air,1
 Node,153,OFFICE_OPEN_4_Z13_TERMINALOUTLET,Air,1
 Node,154,STORAGE_4_Z14_TERMINALOUTLET,Air,1
! ===============================================================
! Suspicious nodes have 0 references.  It is normal for some nodes, however.
! Listing nodes with 0 references (culled from previous list):
! <Suspicious Node>,<NodeNumber>,<Node Name>,<Node Fluid Type>,<# Times Node Referenced After Definition>
 Suspicious Node,71,CONFERENCE_0 AIR NODE,Air,0
 Suspicious Node,73,OFFICE_OPEN_0 AIR NODE,Air,0
 Suspicious Node,75,OFFICE_PRIVATE_0 AIR NODE,Air,0
 Suspicious Node,77,BREAK_ROOM_1 AIR NODE,Air,0
 Suspicious Node,79,OFFICE_PRIVATE_1 AIR NODE,Air,0
 Suspicious Node,81,STORAGE_1 AIR NODE,Air,0
 Suspicious Node,83,CONFERENCE_2 AIR NODE,Air,0
 Suspicious Node,85,BREAK_ROOM_2 AIR NODE,Air,0
 Suspicious Node,87,STORAGE_2 AIR NODE,Air,0
 Suspicious Node,89,LOBBY_3 AIR NODE,Air,0
 Suspicious Node,91,CONFERENCE_3 AIR NODE,Air,0
 Suspicious Node,93,MECHANICAL_4 AIR NODE,Air,0
 Suspicious Node,95,OFFICE_OPEN_4 AIR NODE,Air,0
 Suspicious Node,97,STORAGE_4 AIR NODE,Air,0
! ===============================================================
! <#Branch Lists>,<Number of Branch Lists>
 #Branch Lists,14
! <Branch List>,<Branch List Count>,<Branch List Name>,<Loop Name>,<Loop Type>,<Number of Branches>
! <Branch>,<Branch Count>,<Branch Name>,<Loop Name>,<Loop Type>,<Branch Inlet Node Name>,<Branch Outlet Node Name>
 Branch List,1,CONFERENCE_0_Z1_BRANCHLIST,CONFERENCE_0_Z1_AIRLOOP,Air,1
   Branch,1,CONFERENCE_0_Z1_MAINBRANCH,CONFERENCE_0_Z1_AIRLOOP,Air,CONFERENCE_0_Z1_SUPPLYINLET,CONFERENCE_0_Z1_SUPPLYEQUIPMENTOUTLETNODE
 Branch List,2,OFFICE_OPEN_0_Z2_BRANCHLIST,OFFICE_OPEN_0_Z2_AIRLOOP,Air,1
   Branch,1,OFFICE_OPEN_0_Z2_MAINBRANCH,OFFICE_OPEN_0_Z2_AIRLOOP,Air,OFFICE_OPEN_0_Z2_SUPPLYINLET,OFFICE_OPEN_0_Z2_SUPPLYEQUIPMENTOUTLETNODE
 Branch List,3,OFFICE_PRIVATE_0_Z3_BRANCHLIST,OFFICE_PRIVATE_0_Z3_AIRLOOP,Air,1
   Branch,1,OFFICE_PRIVATE_0_Z3_MAINBRANCH,OFFICE_PRIVATE_0_Z3_AIRLOOP,Air,OFFICE_PRIVATE_0_Z3_SUPPLYINLET,OFFICE_PRIVATE_0_Z3_SUPPLYEQUIPMENTOUTLETNODE
 Branch List,4,BREAK_ROOM_1_Z4_BRANCHLIST,BREAK_ROOM_1_Z4_AIRLOOP,Air,1
   Branch,1,BREAK_ROOM_1_Z4_MAINBRANCH,BREAK_ROOM_1_Z4_AIRLOOP,Air,BREAK_ROOM_1_Z4_SUPPLYINLET,BREAK_ROOM_1_Z4_SUPPLYEQUIPMENTOUTLETNODE
 Branch List,5,OFFICE_PRIVATE_1_Z5_BRANCHLIST,OFFICE_PRIVATE_1_Z5_AIRLOOP,Air,1
   Branch,1,OFFICE_PRIVATE_1_Z5_MAINBRANCH,OFFICE_PRIVATE_1_Z5_AIRLOOP,Air,OFFICE_PRIVATE_1_Z5_SUPPLYINLET,OFFICE_PRIVATE_1_Z5_SUPPLYEQUIPMENTOUTLETNODE
 Branch List,6,STORAGE_1_Z6_BRANCHLIST,STORAGE_1_Z6_AIRLOOP,Air,1
   Branch,1,STORAGE_1_Z6_MAINBRANCH,STORAGE_1_Z6_AIRLOOP,Air,STORAGE_1_Z6_SUPPLYINLET,STORAGE_1_Z6_SUPPLYEQUIPMENTOUTLETNODE
 Branch List,7,CONFERENCE_2_Z7_BRANCHLIST,CONFERENCE_2_Z7_AIRLOOP,Air,1
   Branch,1,CONFERENCE_2_Z7_MAINBRANCH,CONFERENCE_2_Z7_AIRLOOP,Air,CONFERENCE_2_Z7_SUPPLYINLET,CONFERENCE_2_Z7_SUPPLYEQUIPMENTOUTLETNODE
 Branch List,8,BREAK_ROOM_2_Z8_BRANCHLIST,BREAK_ROOM_2_Z8_AIRLOOP,Air,1
   Branch,1,BREAK_ROOM_2_Z8_MAINBRANCH,BREAK_ROOM_2_Z8_AIRLOOP,Air,BREAK_ROOM_2_Z8_SUPPLYINLET,BREAK_ROOM_2_Z8_SUPPLYEQUIPMENTOUTLETNODE
 Branch List,9,STORAGE_2_Z9_BRANCHLIST,STORAGE_2_Z9_AIRLOOP,Air,1
   Branch,1,STORAGE_2_Z9_MAINBRANCH,STORAGE_2_Z9_AIRLOOP,Air,STORAGE_2_Z9_SUPPLYINLET,STORAGE_2_Z9_SUPPLYEQUIPMENTOUTLETNODE
 Branch List,10,LOBBY_3_Z10_BRANCHLIST,LOBBY_3_Z10_AIRLOOP,Air,1
   Branch,1,LOBBY_3_Z10_MAINBRANCH,LOBBY_3_Z10_AIRLOOP,Air,LOBBY_3_Z10_SUPPLYINLET,LOBBY_3_Z10_SUPPLYEQUIPMENTOUTLETNODE
 Branch List,11,CONFERENCE_3_Z11_BRANCHLIST,CONFERENCE_3_Z11_AIRLOOP,Air,1
   Branch,1,CONFERENCE_3_Z11_MAINBRANCH,CONFERENCE_3_Z11_AIRLOOP,Air,CONFERENCE_3_Z11_SUPPLYINLET,CONFERENCE_3_Z11_SUPPLYEQUIPMENTOUTLETNODE
 Branch List,12,MECHANICAL_4_Z12_BRANCHLIST,MECHANICAL_4_Z12_AIRLOOP,Air,1
   Branch,1,MECHANICAL_4_Z12_MAINBRANCH,MECHANICAL_4_Z12_AIRLOOP,Air,MECHANICAL_4_Z12_SUPPLYINLET,MECHANICAL_4_Z12_SUPPLYEQUIPMENTOUTLETNODE
 Branch List,13,OFFICE_OPEN_4_Z13_BRANCHLIST,OFFICE_OPEN_4_Z13_AIRLOOP,Air,1
   Branch,1,OFFICE_OPEN_4_Z13_MAINBRANCH,OFFICE_OPEN_4_Z13_AIRLOOP,Air,OFFICE_OPEN_4_Z13_SUPPLYINLET,OFFICE_OPEN_4_Z13_SUPPLYEQUIPMENTOUTLETNODE
 Branch List,14,STORAGE_4_Z14_BRANCHLIST,STORAGE_4_Z14_AIRLOOP,Air,1
   Branch,1,STORAGE_4_Z14_MAINBRANCH,STORAGE_4_Z14_AIRLOOP,Air,STORAGE_4_Z14_SUPPLYINLET,STORAGE_4_Z14_SUPPLYEQUIPMENTOUTLETNODE
! ===============================================================
! <#Supply Air Paths>,<Number of Supply Air Paths>
 #Supply Air Paths,14
! <Supply Air Path>,<Supply Air Path Count>,<Supply Air Path Name>,<AirLoopHVAC Name>
! <#Components on Supply Air Path>,<Number of Components>
! <Supply Air Path Component>,<Component Count>,<Component Type>,<Component Name>,<AirLoopHVAC Name>
! <#Outlet Nodes on Supply Air Path Component>,<Number of Nodes>
! <Supply Air Path Component Nodes>,<Node Count>,<Component Type>,<Component Name>,<Inlet Node Name>,<Outlet Node Name>,<AirLoopHVAC Name>
 Supply Air Path,1,CONFERENCE_0_Z1,CONFERENCE_0_Z1_AIRLOOP
   #Components on Supply Air Path,1
   Supply Air Path Component,1,AIRLOOPHVAC:ZONESPLITTER,CONFERENCE_0_Z1_SUPPLYSPLITTER,CONFERENCE_0_Z1_AIRLOOP
     #Outlet Nodes on Supply Air Path Component,1
     Supply Air Path Component Nodes,1,AIRLOOPHVAC:ZONESPLITTER,CONFERENCE_0_Z1_SUPPLYSPLITTER,CONFERENCE_0_Z1_ZONEEQUIPMENTINLET,CONFERENCE_0_Z1_TERMINALINLET,CONFERENCE_0_Z1_AIRLOOP
! <#Nodes on Supply Air Path>,<Number of Nodes>
! <Supply Air Path Node>,<Node Type>,<Node Count>,<Node Name>,<AirLoopHVAC Name>
#Nodes on Supply Air Path,2
   Supply Air Path Node,Inlet Node,1,CONFERENCE_0_Z1_ZONEEQUIPMENTINLET,CONFERENCE_0_Z1_AIRLOOP
   Supply Air Path Node,Outlet Node,2,CONFERENCE_0_Z1_TERMINALINLET,CONFERENCE_0_Z1_AIRLOOP
 Supply Air Path,2,OFFICE_OPEN_0_Z2,OFFICE_OPEN_0_Z2_AIRLOOP
   #Components on Supply Air Path,1
   Supply Air Path Component,1,AIRLOOPHVAC:ZONESPLITTER,OFFICE_OPEN_0_Z2_SUPPLYSPLITTER,OFFICE_OPEN_0_Z2_AIRLOOP
     #Outlet Nodes on Supply Air Path Component,1
     Supply Air Path Component Nodes,1,AIRLOOPHVAC:ZONESPLITTER,OFFICE_OPEN_0_Z2_SUPPLYSPLITTER,OFFICE_OPEN_0_Z2_ZONEEQUIPMENTINLET,OFFICE_OPEN_0_Z2_TERMINALINLET,OFFICE_OPEN_0_Z2_AIRLOOP
! <#Nodes on Supply Air Path>,<Number of Nodes>
! <Supply Air Path Node>,<Node Type>,<Node Count>,<Node Name>,<AirLoopHVAC Name>
#Nodes on Supply Air Path,2
   Supply Air Path Node,Inlet Node,1,OFFICE_OPEN_0_Z2_ZONEEQUIPMENTINLET,OFFICE_OPEN_0_Z2_AIRLOOP
   Supply Air Path Node,Outlet Node,2,OFFICE_OPEN_0_Z2_TERMINALINLET,OFFICE_OPEN_0_Z2_AIRLOOP
 Supply Air Path,3,OFFICE_PRIVATE_0_Z3,OFFICE_PRIVATE_0_Z3_AIRLOOP
   #Components on Supply Air Path,1
   Supply Air Path Component,1,AIRLOOPHVAC:ZONESPLITTER,OFFICE_PRIVATE_0_Z3_SUPPLYSPLITTER,OFFICE_PRIVATE_0_Z3_AIRLOOP
     #Outlet Nodes on Supply Air Path Component,1
     Supply Air Path Component Nodes,1,AIRLOOPHVAC:ZONESPLITTER,OFFICE_PRIVATE_0_Z3_SUPPLYSPLITTER,OFFICE_PRIVATE_0_Z3_ZONEEQUIPMENTINLET,OFFICE_PRIVATE_0_Z3_TERMINALINLET,OFFICE_PRIVATE_0_Z3_AIRLOOP
! <#Nodes on Supply Air Path>,<Number of Nodes>
! <Supply Air Path Node>,<Node Type>,<Node Count>,<Node Name>,<AirLoopHVAC Name>
#Nodes on Supply Air Path,2
   Supply Air Path Node,Inlet Node,1,OFFICE_PRIVATE_0_Z3_ZONEEQUIPMENTINLET,OFFICE_PRIVATE_0_Z3_AIRLOOP
   Supply Air Path Node,Outlet Node,2,OFFICE_PRIVATE_0_Z3_TERMINALINLET,OFFICE_PRIVATE_0_Z3_AIRLOOP
 Supply Air Path,4,BREAK_ROOM_1_Z4,BREAK_ROOM_1_Z4_AIRLOOP
   #Components on Supply Air Path,1
   Supply Air Path Component,1,AIRLOOPHVAC:ZONESPLITTER,BREAK_ROOM_1_Z4_SUPPLYSPLITTER,BREAK_ROOM_1_Z4_AIRLOOP
     #Outlet Nodes on Supply Air Path Component,1
     Supply Air Path Component Nodes,1,AIRLOOPHVAC:ZONESPLITTER,BREAK_ROOM_1_Z4_SUPPLYSPLITTER,BREAK_ROOM_1_Z4_ZONEEQUIPMENTINLET,BREAK_ROOM_1_Z4_TERMINALINLET,BREAK_ROOM_1_Z4_AIRLOOP
! <#Nodes on Supply Air Path>,<Number of Nodes>
! <Supply Air Path Node>,<Node Type>,<Node Count>,<Node Name>,<AirLoopHVAC Name>
#Nodes on Supply Air Path,2
   Supply Air Path Node,Inlet Node,1,BREAK_ROOM_1_Z4_ZONEEQUIPMENTINLET,BREAK_ROOM_1_Z4_AIRLOOP
   Supply Air Path Node,Outlet Node,2,BREAK_ROOM_1_Z4_TERMINALINLET,BREAK_ROOM_1_Z4_AIRLOOP
 Supply Air Path,5,OFFICE_PRIVATE_1_Z5,OFFICE_PRIVATE_1_Z5_AIRLOOP
   #Components on Supply Air Path,1
   Supply Air Path Component,1,AIRLOOPHVAC:ZONESPLITTER,OFFICE_PRIVATE_1_Z5_SUPPLYSPLITTER,OFFICE_PRIVATE_1_Z5_AIRLOOP
     #Outlet Nodes on Supply Air Path Component,1
     Supply Air Path Component Nodes,1,AIRLOOPHVAC:ZONESPLITTER,OFFICE_PRIVATE_1_Z5_SUPPLYSPLITTER,OFFICE_PRIVATE_1_Z5_ZONEEQUIPMENTINLET,OFFICE_PRIVATE_1_Z5_TERMINALINLET,OFFICE_PRIVATE_1_Z5_AIRLOOP
! <#Nodes on Supply Air Path>,<Number of Nodes>
! <Supply Air Path Node>,<Node Type>,<Node Count>,<Node Name>,<AirLoopHVAC Name>
#Nodes on Supply Air Path,2
   Supply Air Path Node,Inlet Node,1,OFFICE_PRIVATE_1_Z5_ZONEEQUIPMENTINLET,OFFICE_PRIVATE_1_Z5_AIRLOOP
   Supply Air Path Node,Outlet Node,2,OFFICE_PRIVATE_1_Z5_TERMINALINLET,OFFICE_PRIVATE_1_Z5_AIRLOOP
 Supply Air Path,6,STORAGE_1_Z6,STORAGE_1_Z6_AIRLOOP
   #Components on Supply Air Path,1
   Supply Air Path Component,1,AIRLOOPHVAC:ZONESPLITTER,STORAGE_1_Z6_SUPPLYSPLITTER,STORAGE_1_Z6_AIRLOOP
     #Outlet Nodes on Supply Air Path Component,1
     Supply Air Path Component Nodes,1,AIRLOOPHVAC:ZONESPLITTER,STORAGE_1_Z6_SUPPLYSPLITTER,STORAGE_1_Z6_ZONEEQUIPMENTINLET,STORAGE_1_Z6_TERMINALINLET,STORAGE_1_Z6_AIRLOOP
! <#Nodes on Supply Air Path>,<Number of Nodes>
! <Supply Air Path Node>,<Node Type>,<Node Count>,<Node Name>,<AirLoopHVAC Name>
#Nodes on Supply Air Path,2
   Supply Air Path Node,Inlet Node,1,STORAGE_1_Z6_ZONEEQUIPMENTINLET,STORAGE_1_Z6_AIRLOOP
   Supply Air Path Node,Outlet Node,2,STORAGE_1_Z6_TERMINALINLET,STORAGE_1_Z6_AIRLOOP
 Supply Air Path,7,CONFERENCE_2_Z7,CONFERENCE_2_Z7_AIRLOOP
   #Components on Supply Air Path,1
   Supply Air Path Component,1,AIRLOOPHVAC:ZONESPLITTER,CONFERENCE_2_Z7_SUPPLYSPLITTER,CONFERENCE_2_Z7_AIRLOOP
     #Outlet Nodes on Supply Air Path Component,1
     Supply Air Path Component Nodes,1,AIRLOOPHVAC:ZONESPLITTER,CONFERENCE_2_Z7_SUPPLYSPLITTER,CONFERENCE_2_Z7_ZONEEQUIPMENTINLET,CONFERENCE_2_Z7_TERMINALINLET,CONFERENCE_2_Z7_AIRLOOP
! <#Nodes on Supply Air Path>,<Number of Nodes>
! <Supply Air Path Node>,<Node Type>,<Node Count>,<Node Name>,<AirLoopHVAC Name>
#Nodes on Supply Air Path,2
   Supply Air Path Node,Inlet Node,1,CONFERENCE_2_Z7_ZONEEQUIPMENTINLET,CONFERENCE_2_Z7_AIRLOOP
   Supply Air Path Node,Outlet Node,2,CONFERENCE_2_Z7_TERMINALINLET,CONFERENCE_2_Z7_AIRLOOP
 Supply Air Path,8,BREAK_ROOM_2_Z8,BREAK_ROOM_2_Z8_AIRLOOP
   #Components on Supply Air Path,1
   Supply Air Path Component,1,AIRLOOPHVAC:ZONESPLITTER,BREAK_ROOM_2_Z8_SUPPLYSPLITTER,BREAK_ROOM_2_Z8_AIRLOOP
     #Outlet Nodes on Supply Air Path Component,1
     Supply Air Path Component Nodes,1,AIRLOOPHVAC:ZONESPLITTER,BREAK_ROOM_2_Z8_SUPPLYSPLITTER,BREAK_ROOM_2_Z8_ZONEEQUIPMENTINLET,BREAK_ROOM_2_Z8_TERMINALINLET,BREAK_ROOM_2_Z8_AIRLOOP
! <#Nodes on Supply Air Path>,<Number of Nodes>
! <Supply Air Path Node>,<Node Type>,<Node Count>,<Node Name>,<AirLoopHVAC Name>
#Nodes on Supply Air Path,2
   Supply Air Path Node,Inlet Node,1,BREAK_ROOM_2_Z8_ZONEEQUIPMENTINLET,BREAK_ROOM_2_Z8_AIRLOOP
   Supply Air Path Node,Outlet Node,2,BREAK_ROOM_2_Z8_TERMINALINLET,BREAK_ROOM_2_Z8_AIRLOOP
 Supply Air Path,9,STORAGE_2_Z9,STORAGE_2_Z9_AIRLOOP
   #Components on Supply Air Path,1
   Supply Air Path Component,1,AIRLOOPHVAC:ZONESPLITTER,STORAGE_2_Z9_SUPPLYSPLITTER,STORAGE_2_Z9_AIRLOOP
     #Outlet Nodes on Supply Air Path Component,1
     Supply Air Path Component Nodes,1,AIRLOOPHVAC:ZONESPLITTER,STORAGE_2_Z9_SUPPLYSPLITTER,STORAGE_2_Z9_ZONEEQUIPMENTINLET,STORAGE_2_Z9_TERMINALINLET,STORAGE_2_Z9_AIRLOOP
! <#Nodes on Supply Air Path>,<Number of Nodes>
! <Supply Air Path Node>,<Node Type>,<Node Count>,<Node Name>,<AirLoopHVAC Name>
#Nodes on Supply Air Path,2
   Supply Air Path Node,Inlet Node,1,STORAGE_2_Z9_ZONEEQUIPMENTINLET,STORAGE_2_Z9_AIRLOOP
   Supply Air Path Node,Outlet Node,2,STORAGE_2_Z9_TERMINALINLET,STORAGE_2_Z9_AIRLOOP
 Supply Air Path,10,LOBBY_3_Z10,LOBBY_3_Z10_AIRLOOP
   #Components on Supply Air Path,1
   Supply Air Path Component,1,AIRLOOPHVAC:ZONESPLITTER,LOBBY_3_Z10_SUPPLYSPLITTER,LOBBY_3_Z10_AIRLOOP
     #Outlet Nodes on Supply Air Path Component,1
     Supply Air Path Component Nodes,1,AIRLOOPHVAC:ZONESPLITTER,LOBBY_3_Z10_SUPPLYSPLITTER,LOBBY_3_Z10_ZONEEQUIPMENTINLET,LOBBY_3_Z10_TERMINALINLET,LOBBY_3_Z10_AIRLOOP
! <#Nodes on Supply Air Path>,<Number of Nodes>
! <Supply Air Path Node>,<Node Type>,<Node Count>,<Node Name>,<AirLoopHVAC Name>
#Nodes on Supply Air Path,2
   Supply Air Path Node,Inlet Node,1,LOBBY_3_Z10_ZONEEQUIPMENTINLET,LOBBY_3_Z10_AIRLOOP
   Supply Air Path Node,Outlet Node,2,LOBBY_3_Z10_TERMINALINLET,LOBBY_3_Z10_AIRLOOP
 Supply Air Path,11,CONFERENCE_3_Z11,CONFERENCE_3_Z11_AIRLOOP
   #Components on Supply Air Path,1
   Supply Air Path Component,1,AIRLOOPHVAC:ZONESPLITTER,CONFERENCE_3_Z11_SUPPLYSPLITTER,CONFERENCE_3_Z11_AIRLOOP
     #Outlet Nodes on Supply Air Path Component,1
     Supply Air Path Component Nodes,1,AIRLOOPHVAC:ZONESPLITTER,CONFERENCE_3_Z11_SUPPLYSPLITTER,CONFERENCE_3_Z11_ZONEEQUIPMENTINLET,CONFERENCE_3_Z11_TERMINALINLET,CONFERENCE_3_Z11_AIRLOOP
! <#Nodes on Supply Air Path>,<Number of Nodes>
! <Supply Air Path Node>,<Node Type>,<Node Count>,<Node Name>,<AirLoopHVAC Name>
#Nodes on Supply Air Path,2
   Supply Air Path Node,Inlet Node,1,CONFERENCE_3_Z11_ZONEEQUIPMENTINLET,CONFERENCE_3_Z11_AIRLOOP
   Supply Air Path Node,Outlet Node,2,CONFERENCE_3_Z11_TERMINALINLET,CONFERENCE_3_Z11_AIRLOOP
 Supply Air Path,12,MECHANICAL_4_Z12,MECHANICAL_4_Z12_AIRLOOP
   #Components on Supply Air Path,1
   Supply Air Path Component,1,AIRLOOPHVAC:ZONESPLITTER,MECHANICAL_4_Z12_SUPPLYSPLITTER,MECHANICAL_4_Z12_AIRLOOP
     #Outlet Nodes on Supply Air Path Component,1
     Supply Air Path Component Nodes,1,AIRLOOPHVAC:ZONESPLITTER,MECHANICAL_4_Z12_SUPPLYSPLITTER,MECHANICAL_4_Z12_ZONEEQUIPMENTINLET,MECHANICAL_4_Z12_TERMINALINLET,MECHANICAL_4_Z12_AIRLOOP
! <#Nodes on Supply Air Path>,<Number of Nodes>
! <Supply Air Path Node>,<Node Type>,<Node Count>,<Node Name>,<AirLoopHVAC Name>
#Nodes on Supply Air Path,2
   Supply Air Path Node,Inlet Node,1,MECHANICAL_4_Z12_ZONEEQUIPMENTINLET,MECHANICAL_4_Z12_AIRLOOP
   Supply Air Path Node,Outlet Node,2,MECHANICAL_4_Z12_TERMINALINLET,MECHANICAL_4_Z12_AIRLOOP
 Supply Air Path,13,OFFICE_OPEN_4_Z13,OFFICE_OPEN_4_Z13_AIRLOOP
   #Components on Supply Air Path,1
   Supply Air Path Component,1,AIRLOOPHVAC:ZONESPLITTER,OFFICE_OPEN_4_Z13_SUPPLYSPLITTER,OFFICE_OPEN_4_Z13_AIRLOOP
     #Outlet Nodes on Supply Air Path Component,1
     Supply Air Path Component Nodes,1,AIRLOOPHVAC:ZONESPLITTER,OFFICE_OPEN_4_Z13_SUPPLYSPLITTER,OFFICE_OPEN_4_Z13_ZONEEQUIPMENTINLET,OFFICE_OPEN_4_Z13_TERMINALINLET,OFFICE_OPEN_4_Z13_AIRLOOP
! <#Nodes on Supply Air Path>,<Number of Nodes>
! <Supply Air Path Node>,<Node Type>,<Node Count>,<Node Name>,<AirLoopHVAC Name>
#Nodes on Supply Air Path,2
   Supply Air Path Node,Inlet Node,1,OFFICE_OPEN_4_Z13_ZONEEQUIPMENTINLET,OFFICE_OPEN_4_Z13_AIRLOOP
   Supply Air Path Node,Outlet Node,2,OFFICE_OPEN_4_Z13_TERMINALINLET,OFFICE_OPEN_4_Z13_AIRLOOP
 Supply Air Path,14,STORAGE_4_Z14,STORAGE_4_Z14_AIRLOOP
   #Components on Supply Air Path,1
   Supply Air Path Component,1,AIRLOOPHVAC:ZONESPLITTER,STORAGE_4_Z14_SUPPLYSPLITTER,STORAGE_4_Z14_AIRLOOP
     #Outlet Nodes on Supply Air Path Component,1
     Supply Air Path Component Nodes,1,AIRLOOPHVAC:ZONESPLITTER,STORAGE_4_Z14_SUPPLYSPLITTER,STORAGE_4_Z14_ZONEEQUIPMENTINLET,STORAGE_4_Z14_TERMINALINLET,STORAGE_4_Z14_AIRLOOP
! <#Nodes on Supply Air Path>,<Number of Nodes>
! <Supply Air Path Node>,<Node Type>,<Node Count>,<Node Name>,<AirLoopHVAC Name>
#Nodes on Supply Air Path,2
   Supply Air Path Node,Inlet Node,1,STORAGE_4_Z14_ZONEEQUIPMENTINLET,STORAGE_4_Z14_AIRLOOP
   Supply Air Path Node,Outlet Node,2,STORAGE_4_Z14_TERMINALINLET,STORAGE_4_Z14_AIRLOOP
! ===============================================================
! <#Return Air Paths>,<Number of Return Air Paths>
 #Return Air Paths,14
! <Return Air Path>,<Return Air Path Count>,<Return Air Path Name>,<AirLoopHVAC Name>
! <#Components on Return Air Path>,<Number of Components>
! <Return Air Path Component>,<Component Count>,<Component Type>,<Component Name>,<AirLoopHVAC Name>
! <#Inlet Nodes on Return Air Path Component>,<Number of Nodes>
! <Return Air Path Component Nodes>,<Node Count>,<Component Type>,<Component Name>,<Inlet Node Name>,<Outlet Node Name>,<AirLoopHVAC Name>
 Return Air Path,1,CONFERENCE_0_Z1_RETURNAIRPATH,CONFERENCE_0_Z1_AIRLOOP
   #Components on Return Air Path,1
   Return Air Path Component,1,AIRLOOPHVAC:ZONEMIXER,CONFERENCE_0_Z1_RETURNAIRMIXER,CONFERENCE_0_Z1_AIRLOOP
     #Inlet Nodes on Return Air Path Component,1
     Return Air Path Component Nodes,1,AIRLOOPHVAC:ZONEMIXER,CONFERENCE_0_Z1_RETURNAIRMIXER,CONFERENCE_0_Z1_RETURNAIR,CONFERENCE_0_Z1_ZONEEQUIPMENTOUTLETNODE,CONFERENCE_0_Z1_AIRLOOP
! <#Nodes on Return Air Path>,<Number of Nodes>
! <Return Air Path Node>,<Node Type>,<Node Count>,<Node Name>,<AirLoopHVAC Name>
   #Nodes on Return Air Path,2
   Return Air Path Node,Outlet Node,1,CONFERENCE_0_Z1_ZONEEQUIPMENTOUTLETNODE,CONFERENCE_0_Z1_AIRLOOP
   Return Air Path Node,Inlet Node,2,CONFERENCE_0_Z1_RETURNAIR,CONFERENCE_0_Z1_AIRLOOP
 Return Air Path,2,OFFICE_OPEN_0_Z2_RETURNAIRPATH,OFFICE_OPEN_0_Z2_AIRLOOP
   #Components on Return Air Path,1
   Return Air Path Component,1,AIRLOOPHVAC:ZONEMIXER,OFFICE_OPEN_0_Z2_RETURNAIRMIXER,OFFICE_OPEN_0_Z2_AIRLOOP
     #Inlet Nodes on Return Air Path Component,1
     Return Air Path Component Nodes,1,AIRLOOPHVAC:ZONEMIXER,OFFICE_OPEN_0_Z2_RETURNAIRMIXER,OFFICE_OPEN_0_Z2_RETURNAIR,OFFICE_OPEN_0_Z2_ZONEEQUIPMENTOUTLETNODE,OFFICE_OPEN_0_Z2_AIRLOOP
! <#Nodes on Return Air Path>,<Number of Nodes>
! <Return Air Path Node>,<Node Type>,<Node Count>,<Node Name>,<AirLoopHVAC Name>
   #Nodes on Return Air Path,2
   Return Air Path Node,Outlet Node,1,OFFICE_OPEN_0_Z2_ZONEEQUIPMENTOUTLETNODE,OFFICE_OPEN_0_Z2_AIRLOOP
   Return Air Path Node,Inlet Node,2,OFFICE_OPEN_0_Z2_RETURNAIR,OFFICE_OPEN_0_Z2_AIRLOOP
 Return Air Path,3,OFFICE_PRIVATE_0_Z3_RETURNAIRPATH,OFFICE_PRIVATE_0_Z3_AIRLOOP
   #Components on Return Air Path,1
   Return Air Path Component,1,AIRLOOPHVAC:ZONEMIXER,OFFICE_PRIVATE_0_Z3_RETURNAIRMIXER,OFFICE_PRIVATE_0_Z3_AIRLOOP
     #Inlet Nodes on Return Air Path Component,1
     Return Air Path Component Nodes,1,AIRLOOPHVAC:ZONEMIXER,OFFICE_PRIVATE_0_Z3_RETURNAIRMIXER,OFFICE_PRIVATE_0_Z3_RETURNAIR,OFFICE_PRIVATE_0_Z3_ZONEEQUIPMENTOUTLETNODE,OFFICE_PRIVATE_0_Z3_AIRLOOP
! <#Nodes on Return Air Path>,<Number of Nodes>
! <Return Air Path Node>,<Node Type>,<Node Count>,<Node Name>,<AirLoopHVAC Name>
   #Nodes on Return Air Path,2
   Return Air Path Node,Outlet Node,1,OFFICE_PRIVATE_0_Z3_ZONEEQUIPMENTOUTLETNODE,OFFICE_PRIVATE_0_Z3_AIRLOOP
   Return Air Path Node,Inlet Node,2,OFFICE_PRIVATE_0_Z3_RETURNAIR,OFFICE_PRIVATE_0_Z3_AIRLOOP
 Return Air Path,4,BREAK_ROOM_1_Z4_RETURNAIRPATH,BREAK_ROOM_1_Z4_AIRLOOP
   #Components on Return Air Path,1
   Return Air Path Component,1,AIRLOOPHVAC:ZONEMIXER,BREAK_ROOM_1_Z4_RETURNAIRMIXER,BREAK_ROOM_1_Z4_AIRLOOP
     #Inlet Nodes on Return Air Path Component,1
     Return Air Path Component Nodes,1,AIRLOOPHVAC:ZONEMIXER,BREAK_ROOM_1_Z4_RETURNAIRMIXER,BREAK_ROOM_1_Z4_RETURNAIR,BREAK_ROOM_1_Z4_ZONEEQUIPMENTOUTLETNODE,BREAK_ROOM_1_Z4_AIRLOOP
! <#Nodes on Return Air Path>,<Number of Nodes>
! <Return Air Path Node>,<Node Type>,<Node Count>,<Node Name>,<AirLoopHVAC Name>
   #Nodes on Return Air Path,2
   Return Air Path Node,Outlet Node,1,BREAK_ROOM_1_Z4_ZONEEQUIPMENTOUTLETNODE,BREAK_ROOM_1_Z4_AIRLOOP
   Return Air Path Node,Inlet Node,2,BREAK_ROOM_1_Z4_RETURNAIR,BREAK_ROOM_1_Z4_AIRLOOP
 Return Air Path,5,OFFICE_PRIVATE_1_Z5_RETURNAIRPATH,OFFICE_PRIVATE_1_Z5_AIRLOOP
   #Components on Return Air Path,1
   Return Air Path Component,1,AIRLOOPHVAC:ZONEMIXER,OFFICE_PRIVATE_1_Z5_RETURNAIRMIXER,OFFICE_PRIVATE_1_Z5_AIRLOOP
     #Inlet Nodes on Return Air Path Component,1
     Return Air Path Component Nodes,1,AIRLOOPHVAC:ZONEMIXER,OFFICE_PRIVATE_1_Z5_RETURNAIRMIXER,OFFICE_PRIVATE_1_Z5_RETURNAIR,OFFICE_PRIVATE_1_Z5_ZONEEQUIPMENTOUTLETNODE,OFFICE_PRIVATE_1_Z5_AIRLOOP
! <#Nodes on Return Air Path>,<Number of Nodes>
! <Return Air Path Node>,<Node Type>,<Node Count>,<Node Name>,<AirLoopHVAC Name>
   #Nodes on Return Air Path,2
   Return Air Path Node,Outlet Node,1,OFFICE_PRIVATE_1_Z5_ZONEEQUIPMENTOUTLETNODE,OFFICE_PRIVATE_1_Z5_AIRLOOP
   Return Air Path Node,Inlet Node,2,OFFICE_PRIVATE_1_Z5_RETURNAIR,OFFICE_PRIVATE_1_Z5_AIRLOOP
 Return Air Path,6,STORAGE_1_Z6_RETURNAIRPATH,STORAGE_1_Z6_AIRLOOP
   #Components on Return Air Path,1
   Return Air Path Component,1,AIRLOOPHVAC:ZONEMIXER,STORAGE_1_Z6_RETURNAIRMIXER,STORAGE_1_Z6_AIRLOOP
     #Inlet Nodes on Return Air Path Component,1
     Return Air Path Component Nodes,1,AIRLOOPHVAC:ZONEMIXER,STORAGE_1_Z6_RETURNAIRMIXER,STORAGE_1_Z6_RETURNAIR,STORAGE_1_Z6_ZONEEQUIPMENTOUTLETNODE,STORAGE_1_Z6_AIRLOOP
! <#Nodes on Return Air Path>,<Number of Nodes>
! <Return Air Path Node>,<Node Type>,<Node Count>,<Node Name>,<AirLoopHVAC Name>
   #Nodes on Return Air Path,2
   Return Air Path Node,Outlet Node,1,STORAGE_1_Z6_ZONEEQUIPMENTOUTLETNODE,STORAGE_1_Z6_AIRLOOP
   Return Air Path Node,Inlet Node,2,STORAGE_1_Z6_RETURNAIR,STORAGE_1_Z6_AIRLOOP
 Return Air Path,7,CONFERENCE_2_Z7_RETURNAIRPATH,CONFERENCE_2_Z7_AIRLOOP
   #Components on Return Air Path,1
   Return Air Path Component,1,AIRLOOPHVAC:ZONEMIXER,CONFERENCE_2_Z7_RETURNAIRMIXER,CONFERENCE_2_Z7_AIRLOOP
     #Inlet Nodes on Return Air Path Component,1
     Return Air Path Component Nodes,1,AIRLOOPHVAC:ZONEMIXER,CONFERENCE_2_Z7_RETURNAIRMIXER,CONFERENCE_2_Z7_RETURNAIR,CONFERENCE_2_Z7_ZONEEQUIPMENTOUTLETNODE,CONFERENCE_2_Z7_AIRLOOP
! <#Nodes on Return Air Path>,<Number of Nodes>
! <Return Air Path Node>,<Node Type>,<Node Count>,<Node Name>,<AirLoopHVAC Name>
   #Nodes on Return Air Path,2
   Return Air Path Node,Outlet Node,1,CONFERENCE_2_Z7_ZONEEQUIPMENTOUTLETNODE,CONFERENCE_2_Z7_AIRLOOP
   Return Air Path Node,Inlet Node,2,CONFERENCE_2_Z7_RETURNAIR,CONFERENCE_2_Z7_AIRLOOP
 Return Air Path,8,BREAK_ROOM_2_Z8_RETURNAIRPATH,BREAK_ROOM_2_Z8_AIRLOOP
   #Components on Return Air Path,1
   Return Air Path Component,1,AIRLOOPHVAC:ZONEMIXER,BREAK_ROOM_2_Z8_RETURNAIRMIXER,BREAK_ROOM_2_Z8_AIRLOOP
     #Inlet Nodes on Return Air Path Component,1
     Return Air Path Component Nodes,1,AIRLOOPHVAC:ZONEMIXER,BREAK_ROOM_2_Z8_RETURNAIRMIXER,BREAK_ROOM_2_Z8_RETURNAIR,BREAK_ROOM_2_Z8_ZONEEQUIPMENTOUTLETNODE,BREAK_ROOM_2_Z8_AIRLOOP
! <#Nodes on Return Air Path>,<Number of Nodes>
! <Return Air Path Node>,<Node Type>,<Node Count>,<Node Name>,<AirLoopHVAC Name>
   #Nodes on Return Air Path,2
   Return Air Path Node,Outlet Node,1,BREAK_ROOM_2_Z8_ZONEEQUIPMENTOUTLETNODE,BREAK_ROOM_2_Z8_AIRLOOP
   Return Air Path Node,Inlet Node,2,BREAK_ROOM_2_Z8_RETURNAIR,BREAK_ROOM_2_Z8_AIRLOOP
 Return Air Path,9,STORAGE_2_Z9_RETURNAIRPATH,STORAGE_2_Z9_AIRLOOP
   #Components on Return Air Path,1
   Return Air Path Component,1,AIRLOOPHVAC:ZONEMIXER,STORAGE_2_Z9_RETURNAIRMIXER,STORAGE_2_Z9_AIRLOOP
     #Inlet Nodes on Return Air Path Component,1
     Return Air Path Component Nodes,1,AIRLOOPHVAC:ZONEMIXER,STORAGE_2_Z9_RETURNAIRMIXER,STORAGE_2_Z9_RETURNAIR,STORAGE_2_Z9_ZONEEQUIPMENTOUTLETNODE,STORAGE_2_Z9_AIRLOOP
! <#Nodes on Return Air Path>,<Number of Nodes>
! <Return Air Path Node>,<Node Type>,<Node Count>,<Node Name>,<AirLoopHVAC Name>
   #Nodes on Return Air Path,2
   Return Air Path Node,Outlet Node,1,STORAGE_2_Z9_ZONEEQUIPMENTOUTLETNODE,STORAGE_2_Z9_AIRLOOP
   Return Air Path Node,Inlet Node,2,STORAGE_2_Z9_RETURNAIR,STORAGE_2_Z9_AIRLOOP
 Return Air Path,10,LOBBY_3_Z10_RETURNAIRPATH,LOBBY_3_Z10_AIRLOOP
   #Components on Return Air Path,1
   Return Air Path Component,1,AIRLOOPHVAC:ZONEMIXER,LOBBY_3_Z10_RETURNAIRMIXER,LOBBY_3_Z10_AIRLOOP
     #Inlet Nodes on Return Air Path Component,1
     Return Air Path Component Nodes,1,AIRLOOPHVAC:ZONEMIXER,LOBBY_3_Z10_RETURNAIRMIXER,LOBBY_3_Z10_RETURNAIR,LOBBY_3_Z10_ZONEEQUIPMENTOUTLETNODE,LOBBY_3_Z10_AIRLOOP
! <#Nodes on Return Air Path>,<Number of Nodes>
! <Return Air Path Node>,<Node Type>,<Node Count>,<Node Name>,<AirLoopHVAC Name>
   #Nodes on Return Air Path,2
   Return Air Path Node,Outlet Node,1,LOBBY_3_Z10_ZONEEQUIPMENTOUTLETNODE,LOBBY_3_Z10_AIRLOOP
   Return Air Path Node,Inlet Node,2,LOBBY_3_Z10_RETURNAIR,LOBBY_3_Z10_AIRLOOP
 Return Air Path,11,CONFERENCE_3_Z11_RETURNAIRPATH,CONFERENCE_3_Z11_AIRLOOP
   #Components on Return Air Path,1
   Return Air Path Component,1,AIRLOOPHVAC:ZONEMIXER,CONFERENCE_3_Z11_RETURNAIRMIXER,CONFERENCE_3_Z11_AIRLOOP
     #Inlet Nodes on Return Air Path Component,1
     Return Air Path Component Nodes,1,AIRLOOPHVAC:ZONEMIXER,CONFERENCE_3_Z11_RETURNAIRMIXER,CONFERENCE_3_Z11_RETURNAIR,CONFERENCE_3_Z11_ZONEEQUIPMENTOUTLETNODE,CONFERENCE_3_Z11_AIRLOOP
! <#Nodes on Return Air Path>,<Number of Nodes>
! <Return Air Path Node>,<Node Type>,<Node Count>,<Node Name>,<AirLoopHVAC Name>
   #Nodes on Return Air Path,2
   Return Air Path Node,Outlet Node,1,CONFERENCE_3_Z11_ZONEEQUIPMENTOUTLETNODE,CONFERENCE_3_Z11_AIRLOOP
   Return Air Path Node,Inlet Node,2,CONFERENCE_3_Z11_RETURNAIR,CONFERENCE_3_Z11_AIRLOOP
 Return Air Path,12,MECHANICAL_4_Z12_RETURNAIRPATH,MECHANICAL_4_Z12_AIRLOOP
   #Components on Return Air Path,1
   Return Air Path Component,1,AIRLOOPHVAC:ZONEMIXER,MECHANICAL_4_Z12_RETURNAIRMIXER,MECHANICAL_4_Z12_AIRLOOP
     #Inlet Nodes on Return Air Path Component,1
     Return Air Path Component Nodes,1,AIRLOOPHVAC:ZONEMIXER,MECHANICAL_4_Z12_RETURNAIRMIXER,MECHANICAL_4_Z12_RETURNAIR,MECHANICAL_4_Z12_ZONEEQUIPMENTOUTLETNODE,MECHANICAL_4_Z12_AIRLOOP
! <#Nodes on Return Air Path>,<Number of Nodes>
! <Return Air Path Node>,<Node Type>,<Node Count>,<Node Name>,<AirLoopHVAC Name>
   #Nodes on Return Air Path,2
   Return Air Path Node,Outlet Node,1,MECHANICAL_4_Z12_ZONEEQUIPMENTOUTLETNODE,MECHANICAL_4_Z12_AIRLOOP
   Return Air Path Node,Inlet Node,2,MECHANICAL_4_Z12_RETURNAIR,MECHANICAL_4_Z12_AIRLOOP
 Return Air Path,13,OFFICE_OPEN_4_Z13_RETURNAIRPATH,OFFICE_OPEN_4_Z13_AIRLOOP
   #Components on Return Air Path,1
   Return Air Path Component,1,AIRLOOPHVAC:ZONEMIXER,OFFICE_OPEN_4_Z13_RETURNAIRMIXER,OFFICE_OPEN_4_Z13_AIRLOOP
     #Inlet Nodes on Return Air Path Component,1
     Return Air Path Component Nodes,1,AIRLOOPHVAC:ZONEMIXER,OFFICE_OPEN_4_Z13_RETURNAIRMIXER,OFFICE_OPEN_4_Z13_RETURNAIR,OFFICE_OPEN_4_Z13_ZONEEQUIPMENTOUTLETNODE,OFFICE_OPEN_4_Z13_AIRLOOP
! <#Nodes on Return Air Path>,<Number of Nodes>
! <Return Air Path Node>,<Node Type>,<Node Count>,<Node Name>,<AirLoopHVAC Name>
   #Nodes on Return Air Path,2
   Return Air Path Node,Outlet Node,1,OFFICE_OPEN_4_Z13_ZONEEQUIPMENTOUTLETNODE,OFFICE_OPEN_4_Z13_AIRLOOP
   Return Air Path Node,Inlet Node,2,OFFICE_OPEN_4_Z13_RETURNAIR,OFFICE_OPEN_4_Z13_AIRLOOP
 Return Air Path,14,STORAGE_4_Z14_RETURNAIRPATH,STORAGE_4_Z14_AIRLOOP
   #Components on Return Air Path,1
   Return Air Path Component,1,AIRLOOPHVAC:ZONEMIXER,STORAGE_4_Z14_RETURNAIRMIXER,STORAGE_4_Z14_AIRLOOP
     #Inlet Nodes on Return Air Path Component,1
     Return Air Path Component Nodes,1,AIRLOOPHVAC:ZONEMIXER,STORAGE_4_Z14_RETURNAIRMIXER,STORAGE_4_Z14_RETURNAIR,STORAGE_4_Z14_ZONEEQUIPMENTOUTLETNODE,STORAGE_4_Z14_AIRLOOP
! <#Nodes on Return Air Path>,<Number of Nodes>
! <Return Air Path Node>,<Node Type>,<Node Count>,<Node Name>,<AirLoopHVAC Name>
   #Nodes on Return Air Path,2
   Return Air Path Node,Outlet Node,1,STORAGE_4_Z14_ZONEEQUIPMENTOUTLETNODE,STORAGE_4_Z14_AIRLOOP
   Return Air Path Node,Inlet Node,2,STORAGE_4_Z14_RETURNAIR,STORAGE_4_Z14_AIRLOOP
! ===============================================================
! #Outdoor Air Nodes,<Number of Outdoor Air Nodes>
 #Outdoor Air Nodes,0
! ===============================================================
! <#Component Sets>,<Number of Component Sets>
 #Component Sets,84
! <Component Set>,<Component Set Count>,<Parent Object Type>,<Parent Object Name>,<Component Type>,<Component Name>,<Inlet Node ID>,<Outlet Node ID>,<Description>
 Component Set,1,BRANCH,CONFERENCE_0_Z1_MAINBRANCH,COILSYSTEM:COOLING:DX,CONFERENCE_0_Z1_COOLINGCOIL,CONFERENCE_0_Z1_SUPPLYINLET,CONFERENCE_0_Z1_COOLC-HEATCNODE,Air Nodes
 Component Set,2,BRANCH,CONFERENCE_0_Z1_MAINBRANCH,COIL:HEATING:ELECTRIC,CONFERENCE_0_Z1_HEATINGCOIL,CONFERENCE_0_Z1_COOLC-HEATCNODE,CONFERENCE_0_Z1_HEATC-FANNODE,Air Nodes
 Component Set,3,BRANCH,CONFERENCE_0_Z1_MAINBRANCH,FAN:VARIABLEVOLUME,CONFERENCE_0_Z1_SUPPLYFAN,CONFERENCE_0_Z1_HEATC-FANNODE,CONFERENCE_0_Z1_SUPPLYEQUIPMENTOUTLETNODE,Air Nodes
 Component Set,4,BRANCH,OFFICE_OPEN_0_Z2_MAINBRANCH,COILSYSTEM:COOLING:DX,OFFICE_OPEN_0_Z2_COOLINGCOIL,OFFICE_OPEN_0_Z2_SUPPLYINLET,OFFICE_OPEN_0_Z2_COOLC-HEATCNODE,Air Nodes
 Component Set,5,BRANCH,OFFICE_OPEN_0_Z2_MAINBRANCH,COIL:HEATING:ELECTRIC,OFFICE_OPEN_0_Z2_HEATINGCOIL,OFFICE_OPEN_0_Z2_COOLC-HEATCNODE,OFFICE_OPEN_0_Z2_HEATC-FANNODE,Air Nodes
 Component Set,6,BRANCH,OFFICE_OPEN_0_Z2_MAINBRANCH,FAN:VARIABLEVOLUME,OFFICE_OPEN_0_Z2_SUPPLYFAN,OFFICE_OPEN_0_Z2_HEATC-FANNODE,OFFICE_OPEN_0_Z2_SUPPLYEQUIPMENTOUTLETNODE,Air Nodes
 Component Set,7,BRANCH,OFFICE_PRIVATE_0_Z3_MAINBRANCH,COILSYSTEM:COOLING:DX,OFFICE_PRIVATE_0_Z3_COOLINGCOIL,OFFICE_PRIVATE_0_Z3_SUPPLYINLET,OFFICE_PRIVATE_0_Z3_COOLC-HEATCNODE,Air Nodes
 Component Set,8,BRANCH,OFFICE_PRIVATE_0_Z3_MAINBRANCH,COIL:HEATING:ELECTRIC,OFFICE_PRIVATE_0_Z3_HEATINGCOIL,OFFICE_PRIVATE_0_Z3_COOLC-HEATCNODE,OFFICE_PRIVATE_0_Z3_HEATC-FANNODE,Air Nodes
 Component Set,9,BRANCH,OFFICE_PRIVATE_0_Z3_MAINBRANCH,FAN:VARIABLEVOLUME,OFFICE_PRIVATE_0_Z3_SUPPLYFAN,OFFICE_PRIVATE_0_Z3_HEATC-FANNODE,OFFICE_PRIVATE_0_Z3_SUPPLYEQUIPMENTOUTLETNODE,Air Nodes
 Component Set,10,BRANCH,BREAK_ROOM_1_Z4_MAINBRANCH,COILSYSTEM:COOLING:DX,BREAK_ROOM_1_Z4_COOLINGCOIL,BREAK_ROOM_1_Z4_SUPPLYINLET,BREAK_ROOM_1_Z4_COOLC-HEATCNODE,Air Nodes
 Component Set,11,BRANCH,BREAK_ROOM_1_Z4_MAINBRANCH,COIL:HEATING:ELECTRIC,BREAK_ROOM_1_Z4_HEATINGCOIL,BREAK_ROOM_1_Z4_COOLC-HEATCNODE,BREAK_ROOM_1_Z4_HEATC-FANNODE,Air Nodes
 Component Set,12,BRANCH,BREAK_ROOM_1_Z4_MAINBRANCH,FAN:VARIABLEVOLUME,BREAK_ROOM_1_Z4_SUPPLYFAN,BREAK_ROOM_1_Z4_HEATC-FANNODE,BREAK_ROOM_1_Z4_SUPPLYEQUIPMENTOUTLETNODE,Air Nodes
 Component Set,13,BRANCH,OFFICE_PRIVATE_1_Z5_MAINBRANCH,COILSYSTEM:COOLING:DX,OFFICE_PRIVATE_1_Z5_COOLINGCOIL,OFFICE_PRIVATE_1_Z5_SUPPLYINLET,OFFICE_PRIVATE_1_Z5_COOLC-HEATCNODE,Air Nodes
 Component Set,14,BRANCH,OFFICE_PRIVATE_1_Z5_MAINBRANCH,COIL:HEATING:ELECTRIC,OFFICE_PRIVATE_1_Z5_HEATINGCOIL,OFFICE_PRIVATE_1_Z5_COOLC-HEATCNODE,OFFICE_PRIVATE_1_Z5_HEATC-FANNODE,Air Nodes
 Component Set,15,BRANCH,OFFICE_PRIVATE_1_Z5_MAINBRANCH,FAN:VARIABLEVOLUME,OFFICE_PRIVATE_1_Z5_SUPPLYFAN,OFFICE_PRIVATE_1_Z5_HEATC-FANNODE,OFFICE_PRIVATE_1_Z5_SUPPLYEQUIPMENTOUTLETNODE,Air Nodes
 Component Set,16,BRANCH,STORAGE_1_Z6_MAINBRANCH,COILSYSTEM:COOLING:DX,STORAGE_1_Z6_COOLINGCOIL,STORAGE_1_Z6_SUPPLYINLET,STORAGE_1_Z6_COOLC-HEATCNODE,Air Nodes
 Component Set,17,BRANCH,STORAGE_1_Z6_MAINBRANCH,COIL:HEATING:ELECTRIC,STORAGE_1_Z6_HEATINGCOIL,STORAGE_1_Z6_COOLC-HEATCNODE,STORAGE_1_Z6_HEATC-FANNODE,Air Nodes
 Component Set,18,BRANCH,STORAGE_1_Z6_MAINBRANCH,FAN:VARIABLEVOLUME,STORAGE_1_Z6_SUPPLYFAN,STORAGE_1_Z6_HEATC-FANNODE,STORAGE_1_Z6_SUPPLYEQUIPMENTOUTLETNODE,Air Nodes
 Component Set,19,BRANCH,CONFERENCE_2_Z7_MAINBRANCH,COILSYSTEM:COOLING:DX,CONFERENCE_2_Z7_COOLINGCOIL,CONFERENCE_2_Z7_SUPPLYINLET,CONFERENCE_2_Z7_COOLC-HEATCNODE,Air Nodes
 Component Set,20,BRANCH,CONFERENCE_2_Z7_MAINBRANCH,COIL:HEATING:ELECTRIC,CONFERENCE_2_Z7_HEATINGCOIL,CONFERENCE_2_Z7_COOLC-HEATCNODE,CONFERENCE_2_Z7_HEATC-FANNODE,Air Nodes
 Component Set,21,BRANCH,CONFERENCE_2_Z7_MAINBRANCH,FAN:VARIABLEVOLUME,CONFERENCE_2_Z7_SUPPLYFAN,CONFERENCE_2_Z7_HEATC-FANNODE,CONFERENCE_2_Z7_SUPPLYEQUIPMENTOUTLETNODE,Air Nodes
 Component Set,22,BRANCH,BREAK_ROOM_2_Z8_MAINBRANCH,COILSYSTEM:COOLING:DX,BREAK_ROOM_2_Z8_COOLINGCOIL,BREAK_ROOM_2_Z8_SUPPLYINLET,BREAK_ROOM_2_Z8_COOLC-HEATCNODE,Air Nodes
 Component Set,23,BRANCH,BREAK_ROOM_2_Z8_MAINBRANCH,COIL:HEATING:ELECTRIC,BREAK_ROOM_2_Z8_HEATINGCOIL,BREAK_ROOM_2_Z8_COOLC-HEATCNODE,BREAK_ROOM_2_Z8_HEATC-FANNODE,Air Nodes
 Component Set,24,BRANCH,BREAK_ROOM_2_Z8_MAINBRANCH,FAN:VARIABLEVOLUME,BREAK_ROOM_2_Z8_SUPPLYFAN,BREAK_ROOM_2_Z8_HEATC-FANNODE,BREAK_ROOM_2_Z8_SUPPLYEQUIPMENTOUTLETNODE,Air Nodes
 Component Set,25,BRANCH,STORAGE_2_Z9_MAINBRANCH,COILSYSTEM:COOLING:DX,STORAGE_2_Z9_COOLINGCOIL,STORAGE_2_Z9_SUPPLYINLET,STORAGE_2_Z9_COOLC-HEATCNODE,Air Nodes
 Component Set,26,BRANCH,STORAGE_2_Z9_MAINBRANCH,COIL:HEATING:ELECTRIC,STORAGE_2_Z9_HEATINGCOIL,STORAGE_2_Z9_COOLC-HEATCNODE,STORAGE_2_Z9_HEATC-FANNODE,Air Nodes
 Component Set,27,BRANCH,STORAGE_2_Z9_MAINBRANCH,FAN:VARIABLEVOLUME,STORAGE_2_Z9_SUPPLYFAN,STORAGE_2_Z9_HEATC-FANNODE,STORAGE_2_Z9_SUPPLYEQUIPMENTOUTLETNODE,Air Nodes
 Component Set,28,BRANCH,LOBBY_3_Z10_MAINBRANCH,COILSYSTEM:COOLING:DX,LOBBY_3_Z10_COOLINGCOIL,LOBBY_3_Z10_SUPPLYINLET,LOBBY_3_Z10_COOLC-HEATCNODE,Air Nodes
 Component Set,29,BRANCH,LOBBY_3_Z10_MAINBRANCH,COIL:HEATING:ELECTRIC,LOBBY_3_Z10_HEATINGCOIL,LOBBY_3_Z10_COOLC-HEATCNODE,LOBBY_3_Z10_HEATC-FANNODE,Air Nodes
 Component Set,30,BRANCH,LOBBY_3_Z10_MAINBRANCH,FAN:VARIABLEVOLUME,LOBBY_3_Z10_SUPPLYFAN,LOBBY_3_Z10_HEATC-FANNODE,LOBBY_3_Z10_SUPPLYEQUIPMENTOUTLETNODE,Air Nodes
 Component Set,31,BRANCH,CONFERENCE_3_Z11_MAINBRANCH,COILSYSTEM:COOLING:DX,CONFERENCE_3_Z11_COOLINGCOIL,CONFERENCE_3_Z11_SUPPLYINLET,CONFERENCE_3_Z11_COOLC-HEATCNODE,Air Nodes
 Component Set,32,BRANCH,CONFERENCE_3_Z11_MAINBRANCH,COIL:HEATING:ELECTRIC,CONFERENCE_3_Z11_HEATINGCOIL,CONFERENCE_3_Z11_COOLC-HEATCNODE,CONFERENCE_3_Z11_HEATC-FANNODE,Air Nodes
 Component Set,33,BRANCH,CONFERENCE_3_Z11_MAINBRANCH,FAN:VARIABLEVOLUME,CONFERENCE_3_Z11_SUPPLYFAN,CONFERENCE_3_Z11_HEATC-FANNODE,CONFERENCE_3_Z11_SUPPLYEQUIPMENTOUTLETNODE,Air Nodes
 Component Set,34,BRANCH,MECHANICAL_4_Z12_MAINBRANCH,COILSYSTEM:COOLING:DX,MECHANICAL_4_Z12_COOLINGCOIL,MECHANICAL_4_Z12_SUPPLYINLET,MECHANICAL_4_Z12_COOLC-HEATCNODE,Air Nodes
 Component Set,35,BRANCH,MECHANICAL_4_Z12_MAINBRANCH,COIL:HEATING:ELECTRIC,MECHANICAL_4_Z12_HEATINGCOIL,MECHANICAL_4_Z12_COOLC-HEATCNODE,MECHANICAL_4_Z12_HEATC-FANNODE,Air Nodes
 Component Set,36,BRANCH,MECHANICAL_4_Z12_MAINBRANCH,FAN:VARIABLEVOLUME,MECHANICAL_4_Z12_SUPPLYFAN,MECHANICAL_4_Z12_HEATC-FANNODE,MECHANICAL_4_Z12_SUPPLYEQUIPMENTOUTLETNODE,Air Nodes
 Component Set,37,BRANCH,OFFICE_OPEN_4_Z13_MAINBRANCH,COILSYSTEM:COOLING:DX,OFFICE_OPEN_4_Z13_COOLINGCOIL,OFFICE_OPEN_4_Z13_SUPPLYINLET,OFFICE_OPEN_4_Z13_COOLC-HEATCNODE,Air Nodes
 Component Set,38,BRANCH,OFFICE_OPEN_4_Z13_MAINBRANCH,COIL:HEATING:ELECTRIC,OFFICE_OPEN_4_Z13_HEATINGCOIL,OFFICE_OPEN_4_Z13_COOLC-HEATCNODE,OFFICE_OPEN_4_Z13_HEATC-FANNODE,Air Nodes
 Component Set,39,BRANCH,OFFICE_OPEN_4_Z13_MAINBRANCH,FAN:VARIABLEVOLUME,OFFICE_OPEN_4_Z13_SUPPLYFAN,OFFICE_OPEN_4_Z13_HEATC-FANNODE,OFFICE_OPEN_4_Z13_SUPPLYEQUIPMENTOUTLETNODE,Air Nodes
 Component Set,40,BRANCH,STORAGE_4_Z14_MAINBRANCH,COILSYSTEM:COOLING:DX,STORAGE_4_Z14_COOLINGCOIL,STORAGE_4_Z14_SUPPLYINLET,STORAGE_4_Z14_COOLC-HEATCNODE,Air Nodes
 Component Set,41,BRANCH,STORAGE_4_Z14_MAINBRANCH,COIL:HEATING:ELECTRIC,STORAGE_4_Z14_HEATINGCOIL,STORAGE_4_Z14_COOLC-HEATCNODE,STORAGE_4_Z14_HEATC-FANNODE,Air Nodes
 Component Set,42,BRANCH,STORAGE_4_Z14_MAINBRANCH,FAN:VARIABLEVOLUME,STORAGE_4_Z14_SUPPLYFAN,STORAGE_4_Z14_HEATC-FANNODE,STORAGE_4_Z14_SUPPLYEQUIPMENTOUTLETNODE,Air Nodes
 Component Set,43,ZONEHVAC:AIRDISTRIBUTIONUNIT,CONFERENCE_0_Z1_ADU,AIRTERMINAL:SINGLEDUCT:VAV:REHEAT,CONFERENCE_0_Z1_VAVTERMINAL,CONFERENCE_0_Z1_TERMINALINLET,CONFERENCE_0_Z1_ADUOUTLET,Air Nodes
 Component Set,44,ZONEHVAC:AIRDISTRIBUTIONUNIT,OFFICE_OPEN_0_Z2_ADU,AIRTERMINAL:SINGLEDUCT:VAV:REHEAT,OFFICE_OPEN_0_Z2_VAVTERMINAL,OFFICE_OPEN_0_Z2_TERMINALINLET,OFFICE_OPEN_0_Z2_ADUOUTLET,Air Nodes
 Component Set,45,ZONEHVAC:AIRDISTRIBUTIONUNIT,OFFICE_PRIVATE_0_Z3_ADU,AIRTERMINAL:SINGLEDUCT:VAV:REHEAT,OFFICE_PRIVATE_0_Z3_VAVTERMINAL,OFFICE_PRIVATE_0_Z3_TERMINALINLET,OFFICE_PRIVATE_0_Z3_ADUOUTLET,Air Nodes
 Component Set,46,ZONEHVAC:AIRDISTRIBUTIONUNIT,BREAK_ROOM_1_Z4_ADU,AIRTERMINAL:SINGLEDUCT:VAV:REHEAT,BREAK_ROOM_1_Z4_VAVTERMINAL,BREAK_ROOM_1_Z4_TERMINALINLET,BREAK_ROOM_1_Z4_ADUOUTLET,Air Nodes
 Component Set,47,ZONEHVAC:AIRDISTRIBUTIONUNIT,OFFICE_PRIVATE_1_Z5_ADU,AIRTERMINAL:SINGLEDUCT:VAV:REHEAT,OFFICE_PRIVATE_1_Z5_VAVTERMINAL,OFFICE_PRIVATE_1_Z5_TERMINALINLET,OFFICE_PRIVATE_1_Z5_ADUOUTLET,Air Nodes
 Component Set,48,ZONEHVAC:AIRDISTRIBUTIONUNIT,STORAGE_1_Z6_ADU,AIRTERMINAL:SINGLEDUCT:VAV:REHEAT,STORAGE_1_Z6_VAVTERMINAL,STORAGE_1_Z6_TERMINALINLET,STORAGE_1_Z6_ADUOUTLET,Air Nodes
 Component Set,49,ZONEHVAC:AIRDISTRIBUTIONUNIT,CONFERENCE_2_Z7_ADU,AIRTERMINAL:SINGLEDUCT:VAV:REHEAT,CONFERENCE_2_Z7_VAVTERMINAL,CONFERENCE_2_Z7_TERMINALINLET,CONFERENCE_2_Z7_ADUOUTLET,Air Nodes
 Component Set,50,ZONEHVAC:AIRDISTRIBUTIONUNIT,BREAK_ROOM_2_Z8_ADU,AIRTERMINAL:SINGLEDUCT:VAV:REHEAT,BREAK_ROOM_2_Z8_VAVTERMINAL,BREAK_ROOM_2_Z8_TERMINALINLET,BREAK_ROOM_2_Z8_ADUOUTLET,Air Nodes
 Component Set,51,ZONEHVAC:AIRDISTRIBUTIONUNIT,STORAGE_2_Z9_ADU,AIRTERMINAL:SINGLEDUCT:VAV:REHEAT,STORAGE_2_Z9_VAVTERMINAL,STORAGE_2_Z9_TERMINALINLET,STORAGE_2_Z9_ADUOUTLET,Air Nodes
 Component Set,52,ZONEHVAC:AIRDISTRIBUTIONUNIT,LOBBY_3_Z10_ADU,AIRTERMINAL:SINGLEDUCT:VAV:REHEAT,LOBBY_3_Z10_VAVTERMINAL,LOBBY_3_Z10_TERMINALINLET,LOBBY_3_Z10_ADUOUTLET,Air Nodes
 Component Set,53,ZONEHVAC:AIRDISTRIBUTIONUNIT,CONFERENCE_3_Z11_ADU,AIRTERMINAL:SINGLEDUCT:VAV:REHEAT,CONFERENCE_3_Z11_VAVTERMINAL,CONFERENCE_3_Z11_TERMINALINLET,CONFERENCE_3_Z11_ADUOUTLET,Air Nodes
 Component Set,54,ZONEHVAC:AIRDISTRIBUTIONUNIT,MECHANICAL_4_Z12_ADU,AIRTERMINAL:SINGLEDUCT:VAV:REHEAT,MECHANICAL_4_Z12_VAVTERMINAL,MECHANICAL_4_Z12_TERMINALINLET,MECHANICAL_4_Z12_ADUOUTLET,Air Nodes
 Component Set,55,ZONEHVAC:AIRDISTRIBUTIONUNIT,OFFICE_OPEN_4_Z13_ADU,AIRTERMINAL:SINGLEDUCT:VAV:REHEAT,OFFICE_OPEN_4_Z13_VAVTERMINAL,OFFICE_OPEN_4_Z13_TERMINALINLET,OFFICE_OPEN_4_Z13_ADUOUTLET,Air Nodes
 Component Set,56,ZONEHVAC:AIRDISTRIBUTIONUNIT,STORAGE_4_Z14_ADU,AIRTERMINAL:SINGLEDUCT:VAV:REHEAT,STORAGE_4_Z14_VAVTERMINAL,STORAGE_4_Z14_TERMINALINLET,STORAGE_4_Z14_ADUOUTLET,Air Nodes
 Component Set,57,AIRTERMINAL:SINGLEDUCT:VAV:REHEAT,CONFERENCE_0_Z1_VAVTERMINAL,COIL:HEATING:ELECTRIC,CONFERENCE_0_Z1_REHEATCOIL,CONFERENCE_0_Z1_TERMINALOUTLET,CONFERENCE_0_Z1_ADUOUTLET,Air Nodes
 Component Set,58,AIRTERMINAL:SINGLEDUCT:VAV:REHEAT,OFFICE_OPEN_0_Z2_VAVTERMINAL,COIL:HEATING:ELECTRIC,OFFICE_OPEN_0_Z2_REHEATCOIL,OFFICE_OPEN_0_Z2_TERMINALOUTLET,OFFICE_OPEN_0_Z2_ADUOUTLET,Air Nodes
 Component Set,59,AIRTERMINAL:SINGLEDUCT:VAV:REHEAT,OFFICE_PRIVATE_0_Z3_VAVTERMINAL,COIL:HEATING:ELECTRIC,OFFICE_PRIVATE_0_Z3_REHEATCOIL,OFFICE_PRIVATE_0_Z3_TERMINALOUTLET,OFFICE_PRIVATE_0_Z3_ADUOUTLET,Air Nodes
 Component Set,60,AIRTERMINAL:SINGLEDUCT:VAV:REHEAT,BREAK_ROOM_1_Z4_VAVTERMINAL,COIL:HEATING:ELECTRIC,BREAK_ROOM_1_Z4_REHEATCOIL,BREAK_ROOM_1_Z4_TERMINALOUTLET,BREAK_ROOM_1_Z4_ADUOUTLET,Air Nodes
 Component Set,61,AIRTERMINAL:SINGLEDUCT:VAV:REHEAT,OFFICE_PRIVATE_1_Z5_VAVTERMINAL,COIL:HEATING:ELECTRIC,OFFICE_PRIVATE_1_Z5_REHEATCOIL,OFFICE_PRIVATE_1_Z5_TERMINALOUTLET,OFFICE_PRIVATE_1_Z5_ADUOUTLET,Air Nodes
 Component Set,62,AIRTERMINAL:SINGLEDUCT:VAV:REHEAT,STORAGE_1_Z6_VAVTERMINAL,COIL:HEATING:ELECTRIC,STORAGE_1_Z6_REHEATCOIL,STORAGE_1_Z6_TERMINALOUTLET,STORAGE_1_Z6_ADUOUTLET,Air Nodes
 Component Set,63,AIRTERMINAL:SINGLEDUCT:VAV:REHEAT,CONFERENCE_2_Z7_VAVTERMINAL,COIL:HEATING:ELECTRIC,CONFERENCE_2_Z7_REHEATCOIL,CONFERENCE_2_Z7_TERMINALOUTLET,CONFERENCE_2_Z7_ADUOUTLET,Air Nodes
 Component Set,64,AIRTERMINAL:SINGLEDUCT:VAV:REHEAT,BREAK_ROOM_2_Z8_VAVTERMINAL,COIL:HEATING:ELECTRIC,BREAK_ROOM_2_Z8_REHEATCOIL,BREAK_ROOM_2_Z8_TERMINALOUTLET,BREAK_ROOM_2_Z8_ADUOUTLET,Air Nodes
 Component Set,65,AIRTERMINAL:SINGLEDUCT:VAV:REHEAT,STORAGE_2_Z9_VAVTERMINAL,COIL:HEATING:ELECTRIC,STORAGE_2_Z9_REHEATCOIL,STORAGE_2_Z9_TERMINALOUTLET,STORAGE_2_Z9_ADUOUTLET,Air Nodes
 Component Set,66,AIRTERMINAL:SINGLEDUCT:VAV:REHEAT,LOBBY_3_Z10_VAVTERMINAL,COIL:HEATING:ELECTRIC,LOBBY_3_Z10_REHEATCOIL,LOBBY_3_Z10_TERMINALOUTLET,LOBBY_3_Z10_ADUOUTLET,Air Nodes
 Component Set,67,AIRTERMINAL:SINGLEDUCT:VAV:REHEAT,CONFERENCE_3_Z11_VAVTERMINAL,COIL:HEATING:ELECTRIC,CONFERENCE_3_Z11_REHEATCOIL,CONFERENCE_3_Z11_TERMINALOUTLET,CONFERENCE_3_Z11_ADUOUTLET,Air Nodes
 Component Set,68,AIRTERMINAL:SINGLEDUCT:VAV:REHEAT,MECHANICAL_4_Z12_VAVTERMINAL,COIL:HEATING:ELECTRIC,MECHANICAL_4_Z12_REHEATCOIL,MECHANICAL_4_Z12_TERMINALOUTLET,MECHANICAL_4_Z12_ADUOUTLET,Air Nodes
 Component Set,69,AIRTERMINAL:SINGLEDUCT:VAV:REHEAT,OFFICE_OPEN_4_Z13_VAVTERMINAL,COIL:HEATING:ELECTRIC,OFFICE_OPEN_4_Z13_REHEATCOIL,OFFICE_OPEN_4_Z13_TERMINALOUTLET,OFFICE_OPEN_4_Z13_ADUOUTLET,Air Nodes
 Component Set,70,AIRTERMINAL:SINGLEDUCT:VAV:REHEAT,STORAGE_4_Z14_VAVTERMINAL,COIL:HEATING:ELECTRIC,STORAGE_4_Z14_REHEATCOIL,STORAGE_4_Z14_TERMINALOUTLET,STORAGE_4_Z14_ADUOUTLET,Air Nodes
 Component Set,71,COILSYSTEM:COOLING:DX,CONFERENCE_0_Z1_COOLINGCOIL,COIL:COOLING:DX:SINGLESPEED,CONFERENCE_0_Z1_COOLINGCOILDX,CONFERENCE_0_Z1_SUPPLYINLET,CONFERENCE_0_Z1_COOLC-HEATCNODE,Air Nodes
 Component Set,72,COILSYSTEM:COOLING:DX,OFFICE_OPEN_0_Z2_COOLINGCOIL,COIL:COOLING:DX:SINGLESPEED,OFFICE_OPEN_0_Z2_COOLINGCOILDX,OFFICE_OPEN_0_Z2_SUPPLYINLET,OFFICE_OPEN_0_Z2_COOLC-HEATCNODE,Air Nodes
 Component Set,73,COILSYSTEM:COOLING:DX,OFFICE_PRIVATE_0_Z3_COOLINGCOIL,COIL:COOLING:DX:SINGLESPEED,OFFICE_PRIVATE_0_Z3_COOLINGCOILDX,OFFICE_PRIVATE_0_Z3_SUPPLYINLET,OFFICE_PRIVATE_0_Z3_COOLC-HEATCNODE,Air Nodes
 Component Set,74,COILSYSTEM:COOLING:DX,BREAK_ROOM_1_Z4_COOLINGCOIL,COIL:COOLING:DX:SINGLESPEED,BREAK_ROOM_1_Z4_COOLINGCOILDX,BREAK_ROOM_1_Z4_SUPPLYINLET,BREAK_ROOM_1_Z4_COOLC-HEATCNODE,Air Nodes
 Component Set,75,COILSYSTEM:COOLING:DX,OFFICE_PRIVATE_1_Z5_COOLINGCOIL,COIL:COOLING:DX:SINGLESPEED,OFFICE_PRIVATE_1_Z5_COOLINGCOILDX,OFFICE_PRIVATE_1_Z5_SUPPLYINLET,OFFICE_PRIVATE_1_Z5_COOLC-HEATCNODE,Air Nodes
 Component Set,76,COILSYSTEM:COOLING:DX,STORAGE_1_Z6_COOLINGCOIL,COIL:COOLING:DX:SINGLESPEED,STORAGE_1_Z6_COOLINGCOILDX,STORAGE_1_Z6_SUPPLYINLET,STORAGE_1_Z6_COOLC-HEATCNODE,Air Nodes
 Component Set,77,COILSYSTEM:COOLING:DX,CONFERENCE_2_Z7_COOLINGCOIL,COIL:COOLING:DX:SINGLESPEED,CONFERENCE_2_Z7_COOLINGCOILDX,CONFERENCE_2_Z7_SUPPLYINLET,CONFERENCE_2_Z7_COOLC-HEATCNODE,Air Nodes
 Component Set,78,COILSYSTEM:COOLING:DX,BREAK_ROOM_2_Z8_COOLINGCOIL,COIL:COOLING:DX:SINGLESPEED,BREAK_ROOM_2_Z8_COOLINGCOILDX,BREAK_ROOM_2_Z8_SUPPLYINLET,BREAK_ROOM_2_Z8_COOLC-HEATCNODE,Air Nodes
 Component Set,79,COILSYSTEM:COOLING:DX,STORAGE_2_Z9_COOLINGCOIL,COIL:COOLING:DX:SINGLESPEED,STORAGE_2_Z9_COOLINGCOILDX,STORAGE_2_Z9_SUPPLYINLET,STORAGE_2_Z9_COOLC-HEATCNODE,Air Nodes
 Component Set,80,COILSYSTEM:COOLING:DX,LOBBY_3_Z10_COOLINGCOIL,COIL:COOLING:DX:SINGLESPEED,LOBBY_3_Z10_COOLINGCOILDX,LOBBY_3_Z10_SUPPLYINLET,LOBBY_3_Z10_COOLC-HEATCNODE,Air Nodes
 Component Set,81,COILSYSTEM:COOLING:DX,CONFERENCE_3_Z11_COOLINGCOIL,COIL:COOLING:DX:SINGLESPEED,CONFERENCE_3_Z11_COOLINGCOILDX,CONFERENCE_3_Z11_SUPPLYINLET,CONFERENCE_3_Z11_COOLC-HEATCNODE,Air Nodes
 Component Set,82,COILSYSTEM:COOLING:DX,MECHANICAL_4_Z12_COOLINGCOIL,COIL:COOLING:DX:SINGLESPEED,MECHANICAL_4_Z12_COOLINGCOILDX,MECHANICAL_4_Z12_SUPPLYINLET,MECHANICAL_4_Z12_COOLC-HEATCNODE,Air Nodes
 Component Set,83,COILSYSTEM:COOLING:DX,OFFICE_OPEN_4_Z13_COOLINGCOIL,COIL:COOLING:DX:SINGLESPEED,OFFICE_OPEN_4_Z13_COOLINGCOILDX,OFFICE_OPEN_4_Z13_SUPPLYINLET,OFFICE_OPEN_4_Z13_COOLC-HEATCNODE,Air Nodes
 Component Set,84,COILSYSTEM:COOLING:DX,STORAGE_4_Z14_COOLINGCOIL,COIL:COOLING:DX:SINGLESPEED,STORAGE_4_Z14_COOLINGCOILDX,STORAGE_4_Z14_SUPPLYINLET,STORAGE_4_Z14_COOLC-HEATCNODE,Air Nodes
! ===============================================================
! <# Plant Loops>,<Number of Plant Loops>
 #Plant Loops,0
! <Plant Loop>,<Plant Loop Name>,<Loop Type>,<Inlet Node Name>,<Outlet Node Name>,<Branch List>,<Connector List>
! <Plant Loop Connector>,<Connector Type>,<Connector Name>,<Loop Name>,<Loop Type>,<Number of Inlets/Outlets>
! <Plant Loop Connector Branches>,<Connector Node Count>,<Connector Type>,<Connector Name>,<Inlet Branch>,<Outlet Branch>,<Loop Name>,<Loop Type>
! <Plant Loop Connector Nodes>,<Connector Node Count>,<Connector Type>,<Connector Name>,<Inlet Node>,<Outlet Node>,<Loop Name>,<Loop Type>
! <Plant Loop Supply Connection>,<Plant Loop Name>,<Supply Side Outlet Node Name>,<Demand Side Inlet Node Name>
! <Plant Loop Return Connection>,<Plant Loop Name>,<Demand Side Outlet Node Name>,<Supply Side Inlet Node Name>
! ===============================================================
! <# Condenser Loops>,<Number of Condenser Loops>
 #Condenser Loops,0
! <Condenser Loop>,<Condenser Loop Name>,<Loop Type>,<Inlet Node Name>,<Outlet Node Name>,<Branch List>,<Connector List>
! <Condenser Loop Connector>,<Connector Type>,<Connector Name>,<Loop Name>,<Loop Type>,<Number of Inlets/Outlets>
! <Condenser Loop Connector Branches>,<Connector Node Count>,<Connector Type>,<Connector Name>,<Inlet Branch>,<Outlet Branch>,<Loop Name>,<Loop Type>
! <Condenser Loop Connector Nodes>,<Connector Node Count>,<Connector Type>,<Connector Name>,<Inlet Node>,<Outlet Node>,<Loop Name>,<Loop Type>
! <Condenser Loop Supply Connection>,<Condenser Loop Name>,<Supply Side Outlet Node Name>,<Demand Side Inlet Node Name>
! <Condenser Loop Return Connection>,<Condenser Loop Name>,<Demand Side Outlet Node Name>,<Supply Side Inlet Node Name>
! ===============================================================
! <# Controlled Zones>,<Number of Controlled Zones>
 #Controlled Zones,14
! <Controlled Zone>,<Controlled Zone Name>,<Equip List Name>,<Control List Name>,<Zone Node Name>,<# Inlet Nodes>,<# Exhaust Nodes>,<# Return Nodes>
! <Controlled Zone Inlet>,<Inlet Node Count>,<Controlled Zone Name>,<Supply Air Inlet Node Name>,<SD Sys:Cooling/Heating [DD:Cooling] Inlet Node Name>,<DD Sys:Heating Inlet Node Name>
! <Controlled Zone Exhaust>,<Exhaust Node Count>,<Controlled Zone Name>,<Exhaust Air Node Name>
 Controlled Zone,CONFERENCE_0,CONFERENCE_0_Z1 EQUIPMENT,,CONFERENCE_0 AIR NODE,1,0,1
   Controlled Zone Inlet,1,CONFERENCE_0,CONFERENCE_0_Z1_ADUOUTLET,CONFERENCE_0_Z1_TERMINALINLET,N/A
   Controlled Zone Return,1,CONFERENCE_0,CONFERENCE_0_Z1_RETURNAIR
 Controlled Zone,OFFICE_OPEN_0,OFFICE_OPEN_0_Z2 EQUIPMENT,,OFFICE_OPEN_0 AIR NODE,1,0,1
   Controlled Zone Inlet,1,OFFICE_OPEN_0,OFFICE_OPEN_0_Z2_ADUOUTLET,OFFICE_OPEN_0_Z2_TERMINALINLET,N/A
   Controlled Zone Return,1,OFFICE_OPEN_0,OFFICE_OPEN_0_Z2_RETURNAIR
 Controlled Zone,OFFICE_PRIVATE_0,OFFICE_PRIVATE_0_Z3 EQUIPMENT,,OFFICE_PRIVATE_0 AIR NODE,1,0,1
   Controlled Zone Inlet,1,OFFICE_PRIVATE_0,OFFICE_PRIVATE_0_Z3_ADUOUTLET,OFFICE_PRIVATE_0_Z3_TERMINALINLET,N/A
   Controlled Zone Return,1,OFFICE_PRIVATE_0,OFFICE_PRIVATE_0_Z3_RETURNAIR
 Controlled Zone,BREAK_ROOM_1,BREAK_ROOM_1_Z4 EQUIPMENT,,BREAK_ROOM_1 AIR NODE,1,0,1
   Controlled Zone Inlet,1,BREAK_ROOM_1,BREAK_ROOM_1_Z4_ADUOUTLET,BREAK_ROOM_1_Z4_TERMINALINLET,N/A
   Controlled Zone Return,1,BREAK_ROOM_1,BREAK_ROOM_1_Z4_RETURNAIR
 Controlled Zone,OFFICE_PRIVATE_1,OFFICE_PRIVATE_1_Z5 EQUIPMENT,,OFFICE_PRIVATE_1 AIR NODE,1,0,1
   Controlled Zone Inlet,1,OFFICE_PRIVATE_1,OFFICE_PRIVATE_1_Z5_ADUOUTLET,OFFICE_PRIVATE_1_Z5_TERMINALINLET,N/A
   Controlled Zone Return,1,OFFICE_PRIVATE_1,OFFICE_PRIVATE_1_Z5_RETURNAIR
 Controlled Zone,STORAGE_1,STORAGE_1_Z6 EQUIPMENT,,STORAGE_1 AIR NODE,1,0,1
   Controlled Zone Inlet,1,STORAGE_1,STORAGE_1_Z6_ADUOUTLET,STORAGE_1_Z6_TERMINALINLET,N/A
   Controlled Zone Return,1,STORAGE_1,STORAGE_1_Z6_RETURNAIR
 Controlled Zone,CONFERENCE_2,CONFERENCE_2_Z7 EQUIPMENT,,CONFERENCE_2 AIR NODE,1,0,1
   Controlled Zone Inlet,1,CONFERENCE_2,CONFERENCE_2_Z7_ADUOUTLET,CONFERENCE_2_Z7_TERMINALINLET,N/A
   Controlled Zone Return,1,CONFERENCE_2,CONFERENCE_2_Z7_RETURNAIR
 Controlled Zone,BREAK_ROOM_2,BREAK_ROOM_2_Z8 EQUIPMENT,,BREAK_ROOM_2 AIR NODE,1,0,1
   Controlled Zone Inlet,1,BREAK_ROOM_2,BREAK_ROOM_2_Z8_ADUOUTLET,BREAK_ROOM_2_Z8_TERMINALINLET,N/A
   Controlled Zone Return,1,BREAK_ROOM_2,BREAK_ROOM_2_Z8_RETURNAIR
 Controlled Zone,STORAGE_2,STORAGE_2_Z9 EQUIPMENT,,STORAGE_2 AIR NODE,1,0,1
   Controlled Zone Inlet,1,STORAGE_2,STORAGE_2_Z9_ADUOUTLET,STORAGE_2_Z9_TERMINALINLET,N/A
   Controlled Zone Return,1,STORAGE_2,STORAGE_2_Z9_RETURNAIR
 Controlled Zone,LOBBY_3,LOBBY_3_Z10 EQUIPMENT,,LOBBY_3 AIR NODE,1,0,1
   Controlled Zone Inlet,1,LOBBY_3,LOBBY_3_Z10_ADUOUTLET,LOBBY_3_Z10_TERMINALINLET,N/A
   Controlled Zone Return,1,LOBBY_3,LOBBY_3_Z10_RETURNAIR
 Controlled Zone,CONFERENCE_3,CONFERENCE_3_Z11 EQUIPMENT,,CONFERENCE_3 AIR NODE,1,0,1
   Controlled Zone Inlet,1,CONFERENCE_3,CONFERENCE_3_Z11_ADUOUTLET,CONFERENCE_3_Z11_TERMINALINLET,N/A
   Controlled Zone Return,1,CONFERENCE_3,CONFERENCE_3_Z11_RETURNAIR
 Controlled Zone,MECHANICAL_4,MECHANICAL_4_Z12 EQUIPMENT,,MECHANICAL_4 AIR NODE,1,0,1
   Controlled Zone Inlet,1,MECHANICAL_4,MECHANICAL_4_Z12_ADUOUTLET,MECHANICAL_4_Z12_TERMINALINLET,N/A
   Controlled Zone Return,1,MECHANICAL_4,MECHANICAL_4_Z12_RETURNAIR
 Controlled Zone,OFFICE_OPEN_4,OFFICE_OPEN_4_Z13 EQUIPMENT,,OFFICE_OPEN_4 AIR NODE,1,0,1
   Controlled Zone Inlet,1,OFFICE_OPEN_4,OFFICE_OPEN_4_Z13_ADUOUTLET,OFFICE_OPEN_4_Z13_TERMINALINLET,N/A
   Controlled Zone Return,1,OFFICE_OPEN_4,OFFICE_OPEN_4_Z13_RETURNAIR
 Controlled Zone,STORAGE_4,STORAGE_4_Z14 EQUIPMENT,,STORAGE_4 AIR NODE,1,0,1
   Controlled Zone Inlet,1,STORAGE_4,STORAGE_4_Z14_ADUOUTLET,STORAGE_4_Z14_TERMINALINLET,N/A
   Controlled Zone Return,1,STORAGE_4,STORAGE_4_Z14_RETURNAIR
! ===============================================================
! <#Zone Equipment Lists>,<Number of Zone Equipment Lists>
 #Zone Equipment Lists,14
! <Zone Equipment List>,<Zone Equipment List Count>,<Zone Equipment List Name>,<Zone Name>,<Number of Components>
! <Zone Equipment Component>,<Component Count>,<Component Type>,<Component Name>,<Zone Name>,<Heating Priority>,<Cooling Priority>
 Zone Equipment List,1,CONFERENCE_0_Z1 EQUIPMENT,CONFERENCE_0,1
   Zone Equipment Component,1,ZONEHVAC:AIRDISTRIBUTIONUNIT,CONFERENCE_0_Z1_ADU,CONFERENCE_0,1,1
 Zone Equipment List,2,OFFICE_OPEN_0_Z2 EQUIPMENT,OFFICE_OPEN_0,1
   Zone Equipment Component,1,ZONEHVAC:AIRDISTRIBUTIONUNIT,OFFICE_OPEN_0_Z2_ADU,OFFICE_OPEN_0,1,1
 Zone Equipment List,3,OFFICE_PRIVATE_0_Z3 EQUIPMENT,OFFICE_PRIVATE_0,1
   Zone Equipment Component,1,ZONEHVAC:AIRDISTRIBUTIONUNIT,OFFICE_PRIVATE_0_Z3_ADU,OFFICE_PRIVATE_0,1,1
 Zone Equipment List,4,BREAK_ROOM_1_Z4 EQUIPMENT,BREAK_ROOM_1,1
   Zone Equipment Component,1,ZONEHVAC:AIRDISTRIBUTIONUNIT,BREAK_ROOM_1_Z4_ADU,BREAK_ROOM_1,1,1
 Zone Equipment List,5,OFFICE_PRIVATE_1_Z5 EQUIPMENT,OFFICE_PRIVATE_1,1
   Zone Equipment Component,1,ZONEHVAC:AIRDISTRIBUTIONUNIT,OFFICE_PRIVATE_1_Z5_ADU,OFFICE_PRIVATE_1,1,1
 Zone Equipment List,6,STORAGE_1_Z6 EQUIPMENT,STORAGE_1,1
   Zone Equipment Component,1,ZONEHVAC:AIRDISTRIBUTIONUNIT,STORAGE_1_Z6_ADU,STORAGE_1,1,1
 Zone Equipment List,7,CONFERENCE_2_Z7 EQUIPMENT,CONFERENCE_2,1
   Zone Equipment Component,1,ZONEHVAC:AIRDISTRIBUTIONUNIT,CONFERENCE_2_Z7_ADU,CONFERENCE_2,1,1
 Zone Equipment List,8,BREAK_ROOM_2_Z8 EQUIPMENT,BREAK_ROOM_2,1
   Zone Equipment Component,1,ZONEHVAC:AIRDISTRIBUTIONUNIT,BREAK_ROOM_2_Z8_ADU,BREAK_ROOM_2,1,1
 Zone Equipment List,9,STORAGE_2_Z9 EQUIPMENT,STORAGE_2,1
   Zone Equipment Component,1,ZONEHVAC:AIRDISTRIBUTIONUNIT,STORAGE_2_Z9_ADU,STORAGE_2,1,1
 Zone Equipment List,10,LOBBY_3_Z10 EQUIPMENT,LOBBY_3,1
   Zone Equipment Component,1,ZONEHVAC:AIRDISTRIBUTIONUNIT,LOBBY_3_Z10_ADU,LOBBY_3,1,1
 Zone Equipment List,11,CONFERENCE_3_Z11 EQUIPMENT,CONFERENCE_3,1
   Zone Equipment Component,1,ZONEHVAC:AIRDISTRIBUTIONUNIT,CONFERENCE_3_Z11_ADU,CONFERENCE_3,1,1
 Zone Equipment List,12,MECHANICAL_4_Z12 EQUIPMENT,MECHANICAL_4,1
   Zone Equipment Component,1,ZONEHVAC:AIRDISTRIBUTIONUNIT,MECHANICAL_4_Z12_ADU,MECHANICAL_4,1,1
 Zone Equipment List,13,OFFICE_OPEN_4_Z13 EQUIPMENT,OFFICE_OPEN_4,1
   Zone Equipment Component,1,ZONEHVAC:AIRDISTRIBUTIONUNIT,OFFICE_OPEN_4_Z13_ADU,OFFICE_OPEN_4,1,1
 Zone Equipment List,14,STORAGE_4_Z14 EQUIPMENT,STORAGE_4,1
   Zone Equipment Component,1,ZONEHVAC:AIRDISTRIBUTIONUNIT,STORAGE_4_Z14_ADU,STORAGE_4,1,1
! ===============================================================
! <#AirLoopHVACs>,<Number of AirLoopHVACs>
 #AirLoopHVACs,14
! <AirLoopHVAC>,<Air Loop Name>,<# Return Nodes>,<# Supply Nodes>,<# Zones Cooled>,<# Zones Heated>,<Outdoor Air Used>
! <AirLoop Return Connections>,<Connection Count>,<AirLoopHVAC Name>,<Zn Eqp Return Node #>,<Zn Eqp Return Node Name>,<AirLoop Return Node #>,<Air Loop Return Node Name>
! <AirLoop Supply Connections>,<Connection Count>,<AirLoopHVAC Name>,<Zn Eqp Supply Node #>,<Zn Eqp Supply Node Name>,<AirLoop Supply Node #>,<Air Loop Supply Node Name>
! <Cooled Zone Info>,<Cooled Zone Count>,<Cooled Zone Name>,<Cooled Zone Inlet Node #>,<Cooled Zone Inlet Node Name>,<AirLoopHVAC Name>
! <Heated Zone Info>,<Heated Zone Count>,<Heated Zone Name>,<Heated Zone Inlet Node #>,<Heated Zone Inlet Node Name>,<AirLoopHVAC Name>
! <Outdoor Air Connections>,<OA Inlet Node #>,<OA Return Air Inlet Node Name>,<OA Outlet Node #>,<OA Mixed Air Outlet Node Name>,<AirLoopHVAC Name>
! <AirLoopHVAC Connector>,<Connector Type>,<Connector Name>,<Loop Name>,<Loop Type>,<Number of Inlets/Outlets>
! <AirLoopHVAC Connector Branches>,<Connector Node Count>,<Connector Type>,<Connector Name>,<Inlet Branch>,<Outlet Branch>,<Loop Name>,<Loop Type>
! <AirLoopHVAC Connector Nodes>,<Connector Node Count>,<Connector Type>,<Connector Name>,<Inlet Node>,<Outlet Node>,<Loop Name>,<Loop Type>
 AirLoopHVAC,CONFERENCE_0_Z1_AIRLOOP,1,1,1,0,No
   AirLoop Return Connections,1,CONFERENCE_0_Z1_AIRLOOP,113,CONFERENCE_0_Z1_ZONEEQUIPMENTOUTLETNODE,15,CONFERENCE_0_Z1_SUPPLYINLET
   AirLoop Supply Connections,1,CONFERENCE_0_Z1_AIRLOOP,99,CONFERENCE_0_Z1_ZONEEQUIPMENTINLET,18,CONFERENCE_0_Z1_SUPPLYEQUIPMENTOUTLETNODE
   Cooled Zone Info,1,CONFERENCE_0,1,CONFERENCE_0_Z1_ADUOUTLET,CONFERENCE_0_Z1_AIRLOOP
 AirLoopHVAC,OFFICE_OPEN_0_Z2_AIRLOOP,1,1,1,0,No
   AirLoop Return Connections,1,OFFICE_OPEN_0_Z2_AIRLOOP,114,OFFICE_OPEN_0_Z2_ZONEEQUIPMENTOUTLETNODE,19,OFFICE_OPEN_0_Z2_SUPPLYINLET
   AirLoop Supply Connections,1,OFFICE_OPEN_0_Z2_AIRLOOP,100,OFFICE_OPEN_0_Z2_ZONEEQUIPMENTINLET,22,OFFICE_OPEN_0_Z2_SUPPLYEQUIPMENTOUTLETNODE
   Cooled Zone Info,1,OFFICE_OPEN_0,2,OFFICE_OPEN_0_Z2_ADUOUTLET,OFFICE_OPEN_0_Z2_AIRLOOP
 AirLoopHVAC,OFFICE_PRIVATE_0_Z3_AIRLOOP,1,1,1,0,No
   AirLoop Return Connections,1,OFFICE_PRIVATE_0_Z3_AIRLOOP,115,OFFICE_PRIVATE_0_Z3_ZONEEQUIPMENTOUTLETNODE,23,OFFICE_PRIVATE_0_Z3_SUPPLYINLET
   AirLoop Supply Connections,1,OFFICE_PRIVATE_0_Z3_AIRLOOP,101,OFFICE_PRIVATE_0_Z3_ZONEEQUIPMENTINLET,26,OFFICE_PRIVATE_0_Z3_SUPPLYEQUIPMENTOUTLETNODE
   Cooled Zone Info,1,OFFICE_PRIVATE_0,3,OFFICE_PRIVATE_0_Z3_ADUOUTLET,OFFICE_PRIVATE_0_Z3_AIRLOOP
 AirLoopHVAC,BREAK_ROOM_1_Z4_AIRLOOP,1,1,1,0,No
   AirLoop Return Connections,1,BREAK_ROOM_1_Z4_AIRLOOP,116,BREAK_ROOM_1_Z4_ZONEEQUIPMENTOUTLETNODE,27,BREAK_ROOM_1_Z4_SUPPLYINLET
   AirLoop Supply Connections,1,BREAK_ROOM_1_Z4_AIRLOOP,102,BREAK_ROOM_1_Z4_ZONEEQUIPMENTINLET,30,BREAK_ROOM_1_Z4_SUPPLYEQUIPMENTOUTLETNODE
   Cooled Zone Info,1,BREAK_ROOM_1,4,BREAK_ROOM_1_Z4_ADUOUTLET,BREAK_ROOM_1_Z4_AIRLOOP
 AirLoopHVAC,OFFICE_PRIVATE_1_Z5_AIRLOOP,1,1,1,0,No
   AirLoop Return Connections,1,OFFICE_PRIVATE_1_Z5_AIRLOOP,117,OFFICE_PRIVATE_1_Z5_ZONEEQUIPMENTOUTLETNODE,31,OFFICE_PRIVATE_1_Z5_SUPPLYINLET
   AirLoop Supply Connections,1,OFFICE_PRIVATE_1_Z5_AIRLOOP,103,OFFICE_PRIVATE_1_Z5_ZONEEQUIPMENTINLET,34,OFFICE_PRIVATE_1_Z5_SUPPLYEQUIPMENTOUTLETNODE
   Cooled Zone Info,1,OFFICE_PRIVATE_1,5,OFFICE_PRIVATE_1_Z5_ADUOUTLET,OFFICE_PRIVATE_1_Z5_AIRLOOP
 AirLoopHVAC,STORAGE_1_Z6_AIRLOOP,1,1,1,0,No
   AirLoop Return Connections,1,STORAGE_1_Z6_AIRLOOP,118,STORAGE_1_Z6_ZONEEQUIPMENTOUTLETNODE,35,STORAGE_1_Z6_SUPPLYINLET
   AirLoop Supply Connections,1,STORAGE_1_Z6_AIRLOOP,104,STORAGE_1_Z6_ZONEEQUIPMENTINLET,38,STORAGE_1_Z6_SUPPLYEQUIPMENTOUTLETNODE
   Cooled Zone Info,1,STORAGE_1,6,STORAGE_1_Z6_ADUOUTLET,STORAGE_1_Z6_AIRLOOP
 AirLoopHVAC,CONFERENCE_2_Z7_AIRLOOP,1,1,1,0,No
   AirLoop Return Connections,1,CONFERENCE_2_Z7_AIRLOOP,119,CONFERENCE_2_Z7_ZONEEQUIPMENTOUTLETNODE,39,CONFERENCE_2_Z7_SUPPLYINLET
   AirLoop Supply Connections,1,CONFERENCE_2_Z7_AIRLOOP,105,CONFERENCE_2_Z7_ZONEEQUIPMENTINLET,42,CONFERENCE_2_Z7_SUPPLYEQUIPMENTOUTLETNODE
   Cooled Zone Info,1,CONFERENCE_2,7,CONFERENCE_2_Z7_ADUOUTLET,CONFERENCE_2_Z7_AIRLOOP
 AirLoopHVAC,BREAK_ROOM_2_Z8_AIRLOOP,1,1,1,0,No
   AirLoop Return Connections,1,BREAK_ROOM_2_Z8_AIRLOOP,120,BREAK_ROOM_2_Z8_ZONEEQUIPMENTOUTLETNODE,43,BREAK_ROOM_2_Z8_SUPPLYINLET
   AirLoop Supply Connections,1,BREAK_ROOM_2_Z8_AIRLOOP,106,BREAK_ROOM_2_Z8_ZONEEQUIPMENTINLET,46,BREAK_ROOM_2_Z8_SUPPLYEQUIPMENTOUTLETNODE
   Cooled Zone Info,1,BREAK_ROOM_2,8,BREAK_ROOM_2_Z8_ADUOUTLET,BREAK_ROOM_2_Z8_AIRLOOP
 AirLoopHVAC,STORAGE_2_Z9_AIRLOOP,1,1,1,0,No
   AirLoop Return Connections,1,STORAGE_2_Z9_AIRLOOP,121,STORAGE_2_Z9_ZONEEQUIPMENTOUTLETNODE,47,STORAGE_2_Z9_SUPPLYINLET
   AirLoop Supply Connections,1,STORAGE_2_Z9_AIRLOOP,107,STORAGE_2_Z9_ZONEEQUIPMENTINLET,50,STORAGE_2_Z9_SUPPLYEQUIPMENTOUTLETNODE
   Cooled Zone Info,1,STORAGE_2,9,STORAGE_2_Z9_ADUOUTLET,STORAGE_2_Z9_AIRLOOP
 AirLoopHVAC,LOBBY_3_Z10_AIRLOOP,1,1,1,0,No
   AirLoop Return Connections,1,LOBBY_3_Z10_AIRLOOP,122,LOBBY_3_Z10_ZONEEQUIPMENTOUTLETNODE,51,LOBBY_3_Z10_SUPPLYINLET
   AirLoop Supply Connections,1,LOBBY_3_Z10_AIRLOOP,108,LOBBY_3_Z10_ZONEEQUIPMENTINLET,54,LOBBY_3_Z10_SUPPLYEQUIPMENTOUTLETNODE
   Cooled Zone Info,1,LOBBY_3,10,LOBBY_3_Z10_ADUOUTLET,LOBBY_3_Z10_AIRLOOP
 AirLoopHVAC,CONFERENCE_3_Z11_AIRLOOP,1,1,1,0,No
   AirLoop Return Connections,1,CONFERENCE_3_Z11_AIRLOOP,123,CONFERENCE_3_Z11_ZONEEQUIPMENTOUTLETNODE,55,CONFERENCE_3_Z11_SUPPLYINLET
   AirLoop Supply Connections,1,CONFERENCE_3_Z11_AIRLOOP,109,CONFERENCE_3_Z11_ZONEEQUIPMENTINLET,58,CONFERENCE_3_Z11_SUPPLYEQUIPMENTOUTLETNODE
   Cooled Zone Info,1,CONFERENCE_3,11,CONFERENCE_3_Z11_ADUOUTLET,CONFERENCE_3_Z11_AIRLOOP
 AirLoopHVAC,MECHANICAL_4_Z12_AIRLOOP,1,1,1,0,No
   AirLoop Return Connections,1,MECHANICAL_4_Z12_AIRLOOP,124,MECHANICAL_4_Z12_ZONEEQUIPMENTOUTLETNODE,59,MECHANICAL_4_Z12_SUPPLYINLET
   AirLoop Supply Connections,1,MECHANICAL_4_Z12_AIRLOOP,110,MECHANICAL_4_Z12_ZONEEQUIPMENTINLET,62,MECHANICAL_4_Z12_SUPPLYEQUIPMENTOUTLETNODE
   Cooled Zone Info,1,MECHANICAL_4,12,MECHANICAL_4_Z12_ADUOUTLET,MECHANICAL_4_Z12_AIRLOOP
 AirLoopHVAC,OFFICE_OPEN_4_Z13_AIRLOOP,1,1,1,0,No
   AirLoop Return Connections,1,OFFICE_OPEN_4_Z13_AIRLOOP,125,OFFICE_OPEN_4_Z13_ZONEEQUIPMENTOUTLETNODE,63,OFFICE_OPEN_4_Z13_SUPPLYINLET
   AirLoop Supply Connections,1,OFFICE_OPEN_4_Z13_AIRLOOP,111,OFFICE_OPEN_4_Z13_ZONEEQUIPMENTINLET,66,OFFICE_OPEN_4_Z13_SUPPLYEQUIPMENTOUTLETNODE
   Cooled Zone Info,1,OFFICE_OPEN_4,13,OFFICE_OPEN_4_Z13_ADUOUTLET,OFFICE_OPEN_4_Z13_AIRLOOP
 AirLoopHVAC,STORAGE_4_Z14_AIRLOOP,1,1,1,0,No
   AirLoop Return Connections,1,STORAGE_4_Z14_AIRLOOP,126,STORAGE_4_Z14_ZONEEQUIPMENTOUTLETNODE,67,STORAGE_4_Z14_SUPPLYINLET
   AirLoop Supply Connections,1,STORAGE_4_Z14_AIRLOOP,112,STORAGE_4_Z14_ZONEEQUIPMENTINLET,70,STORAGE_4_Z14_SUPPLYEQUIPMENTOUTLETNODE
   Cooled Zone Info,1,STORAGE_4,14,STORAGE_4_Z14_ADUOUTLET,STORAGE_4_Z14_AIRLOOP
! ===============================================================
! <#Parent Node Connections>,<Number of Parent Node Connections>
 #Parent Node Connections,210
! <Parent Node Connection>,<Node Name>,<Node ObjectType>,<Node ObjectName>,<Node ConnectionType>,<Node FluidStream>
 Parent Node Connection,CONFERENCE_0_Z1_SUPPLYINLET,BRANCH,CONFERENCE_0_Z1_MAINBRANCH,Inlet,1
 Parent Node Connection,CONFERENCE_0_Z1_COOLC-HEATCNODE,BRANCH,CONFERENCE_0_Z1_MAINBRANCH,Internal,1
 Parent Node Connection,CONFERENCE_0_Z1_HEATC-FANNODE,BRANCH,CONFERENCE_0_Z1_MAINBRANCH,Internal,1
 Parent Node Connection,CONFERENCE_0_Z1_SUPPLYEQUIPMENTOUTLETNODE,BRANCH,CONFERENCE_0_Z1_MAINBRANCH,Outlet,1
 Parent Node Connection,OFFICE_OPEN_0_Z2_SUPPLYINLET,BRANCH,OFFICE_OPEN_0_Z2_MAINBRANCH,Inlet,1
 Parent Node Connection,OFFICE_OPEN_0_Z2_COOLC-HEATCNODE,BRANCH,OFFICE_OPEN_0_Z2_MAINBRANCH,Internal,1
 Parent Node Connection,OFFICE_OPEN_0_Z2_HEATC-FANNODE,BRANCH,OFFICE_OPEN_0_Z2_MAINBRANCH,Internal,1
 Parent Node Connection,OFFICE_OPEN_0_Z2_SUPPLYEQUIPMENTOUTLETNODE,BRANCH,OFFICE_OPEN_0_Z2_MAINBRANCH,Outlet,1
 Parent Node Connection,OFFICE_PRIVATE_0_Z3_SUPPLYINLET,BRANCH,OFFICE_PRIVATE_0_Z3_MAINBRANCH,Inlet,1
 Parent Node Connection,OFFICE_PRIVATE_0_Z3_COOLC-HEATCNODE,BRANCH,OFFICE_PRIVATE_0_Z3_MAINBRANCH,Internal,1
 Parent Node Connection,OFFICE_PRIVATE_0_Z3_HEATC-FANNODE,BRANCH,OFFICE_PRIVATE_0_Z3_MAINBRANCH,Internal,1
 Parent Node Connection,OFFICE_PRIVATE_0_Z3_SUPPLYEQUIPMENTOUTLETNODE,BRANCH,OFFICE_PRIVATE_0_Z3_MAINBRANCH,Outlet,1
 Parent Node Connection,BREAK_ROOM_1_Z4_SUPPLYINLET,BRANCH,BREAK_ROOM_1_Z4_MAINBRANCH,Inlet,1
 Parent Node Connection,BREAK_ROOM_1_Z4_COOLC-HEATCNODE,BRANCH,BREAK_ROOM_1_Z4_MAINBRANCH,Internal,1
 Parent Node Connection,BREAK_ROOM_1_Z4_HEATC-FANNODE,BRANCH,BREAK_ROOM_1_Z4_MAINBRANCH,Internal,1
 Parent Node Connection,BREAK_ROOM_1_Z4_SUPPLYEQUIPMENTOUTLETNODE,BRANCH,BREAK_ROOM_1_Z4_MAINBRANCH,Outlet,1
 Parent Node Connection,OFFICE_PRIVATE_1_Z5_SUPPLYINLET,BRANCH,OFFICE_PRIVATE_1_Z5_MAINBRANCH,Inlet,1
 Parent Node Connection,OFFICE_PRIVATE_1_Z5_COOLC-HEATCNODE,BRANCH,OFFICE_PRIVATE_1_Z5_MAINBRANCH,Internal,1
 Parent Node Connection,OFFICE_PRIVATE_1_Z5_HEATC-FANNODE,BRANCH,OFFICE_PRIVATE_1_Z5_MAINBRANCH,Internal,1
 Parent Node Connection,OFFICE_PRIVATE_1_Z5_SUPPLYEQUIPMENTOUTLETNODE,BRANCH,OFFICE_PRIVATE_1_Z5_MAINBRANCH,Outlet,1
 Parent Node Connection,STORAGE_1_Z6_SUPPLYINLET,BRANCH,STORAGE_1_Z6_MAINBRANCH,Inlet,1
 Parent Node Connection,STORAGE_1_Z6_COOLC-HEATCNODE,BRANCH,STORAGE_1_Z6_MAINBRANCH,Internal,1
 Parent Node Connection,STORAGE_1_Z6_HEATC-FANNODE,BRANCH,STORAGE_1_Z6_MAINBRANCH,Internal,1
 Parent Node Connection,STORAGE_1_Z6_SUPPLYEQUIPMENTOUTLETNODE,BRANCH,STORAGE_1_Z6_MAINBRANCH,Outlet,1
 Parent Node Connection,CONFERENCE_2_Z7_SUPPLYINLET,BRANCH,CONFERENCE_2_Z7_MAINBRANCH,Inlet,1
 Parent Node Connection,CONFERENCE_2_Z7_COOLC-HEATCNODE,BRANCH,CONFERENCE_2_Z7_MAINBRANCH,Internal,1
 Parent Node Connection,CONFERENCE_2_Z7_HEATC-FANNODE,BRANCH,CONFERENCE_2_Z7_MAINBRANCH,Internal,1
 Parent Node Connection,CONFERENCE_2_Z7_SUPPLYEQUIPMENTOUTLETNODE,BRANCH,CONFERENCE_2_Z7_MAINBRANCH,Outlet,1
 Parent Node Connection,BREAK_ROOM_2_Z8_SUPPLYINLET,BRANCH,BREAK_ROOM_2_Z8_MAINBRANCH,Inlet,1
 Parent Node Connection,BREAK_ROOM_2_Z8_COOLC-HEATCNODE,BRANCH,BREAK_ROOM_2_Z8_MAINBRANCH,Internal,1
 Parent Node Connection,BREAK_ROOM_2_Z8_HEATC-FANNODE,BRANCH,BREAK_ROOM_2_Z8_MAINBRANCH,Internal,1
 Parent Node Connection,BREAK_ROOM_2_Z8_SUPPLYEQUIPMENTOUTLETNODE,BRANCH,BREAK_ROOM_2_Z8_MAINBRANCH,Outlet,1
 Parent Node Connection,STORAGE_2_Z9_SUPPLYINLET,BRANCH,STORAGE_2_Z9_MAINBRANCH,Inlet,1
 Parent Node Connection,STORAGE_2_Z9_COOLC-HEATCNODE,BRANCH,STORAGE_2_Z9_MAINBRANCH,Internal,1
 Parent Node Connection,STORAGE_2_Z9_HEATC-FANNODE,BRANCH,STORAGE_2_Z9_MAINBRANCH,Internal,1
 Parent Node Connection,STORAGE_2_Z9_SUPPLYEQUIPMENTOUTLETNODE,BRANCH,STORAGE_2_Z9_MAINBRANCH,Outlet,1
 Parent Node Connection,LOBBY_3_Z10_SUPPLYINLET,BRANCH,LOBBY_3_Z10_MAINBRANCH,Inlet,1
 Parent Node Connection,LOBBY_3_Z10_COOLC-HEATCNODE,BRANCH,LOBBY_3_Z10_MAINBRANCH,Internal,1
 Parent Node Connection,LOBBY_3_Z10_HEATC-FANNODE,BRANCH,LOBBY_3_Z10_MAINBRANCH,Internal,1
 Parent Node Connection,LOBBY_3_Z10_SUPPLYEQUIPMENTOUTLETNODE,BRANCH,LOBBY_3_Z10_MAINBRANCH,Outlet,1
 Parent Node Connection,CONFERENCE_3_Z11_SUPPLYINLET,BRANCH,CONFERENCE_3_Z11_MAINBRANCH,Inlet,1
 Parent Node Connection,CONFERENCE_3_Z11_COOLC-HEATCNODE,BRANCH,CONFERENCE_3_Z11_MAINBRANCH,Internal,1
 Parent Node Connection,CONFERENCE_3_Z11_HEATC-FANNODE,BRANCH,CONFERENCE_3_Z11_MAINBRANCH,Internal,1
 Parent Node Connection,CONFERENCE_3_Z11_SUPPLYEQUIPMENTOUTLETNODE,BRANCH,CONFERENCE_3_Z11_MAINBRANCH,Outlet,1
 Parent Node Connection,MECHANICAL_4_Z12_SUPPLYINLET,BRANCH,MECHANICAL_4_Z12_MAINBRANCH,Inlet,1
 Parent Node Connection,MECHANICAL_4_Z12_COOLC-HEATCNODE,BRANCH,MECHANICAL_4_Z12_MAINBRANCH,Internal,1
 Parent Node Connection,MECHANICAL_4_Z12_HEATC-FANNODE,BRANCH,MECHANICAL_4_Z12_MAINBRANCH,Internal,1
 Parent Node Connection,MECHANICAL_4_Z12_SUPPLYEQUIPMENTOUTLETNODE,BRANCH,MECHANICAL_4_Z12_MAINBRANCH,Outlet,1
 Parent Node Connection,OFFICE_OPEN_4_Z13_SUPPLYINLET,BRANCH,OFFICE_OPEN_4_Z13_MAINBRANCH,Inlet,1
 Parent Node Connection,OFFICE_OPEN_4_Z13_COOLC-HEATCNODE,BRANCH,OFFICE_OPEN_4_Z13_MAINBRANCH,Internal,1
 Parent Node Connection,OFFICE_OPEN_4_Z13_HEATC-FANNODE,BRANCH,OFFICE_OPEN_4_Z13_MAINBRANCH,Internal,1
 Parent Node Connection,OFFICE_OPEN_4_Z13_SUPPLYEQUIPMENTOUTLETNODE,BRANCH,OFFICE_OPEN_4_Z13_MAINBRANCH,Outlet,1
 Parent Node Connection,STORAGE_4_Z14_SUPPLYINLET,BRANCH,STORAGE_4_Z14_MAINBRANCH,Inlet,1
 Parent Node Connection,STORAGE_4_Z14_COOLC-HEATCNODE,BRANCH,STORAGE_4_Z14_MAINBRANCH,Internal,1
 Parent Node Connection,STORAGE_4_Z14_HEATC-FANNODE,BRANCH,STORAGE_4_Z14_MAINBRANCH,Internal,1
 Parent Node Connection,STORAGE_4_Z14_SUPPLYEQUIPMENTOUTLETNODE,BRANCH,STORAGE_4_Z14_MAINBRANCH,Outlet,1
 Parent Node Connection,CONFERENCE_0_Z1_ZONEEQUIPMENTINLET,AIRLOOPHVAC:SUPPLYPATH,CONFERENCE_0_Z1,Inlet,1
 Parent Node Connection,OFFICE_OPEN_0_Z2_ZONEEQUIPMENTINLET,AIRLOOPHVAC:SUPPLYPATH,OFFICE_OPEN_0_Z2,Inlet,1
 Parent Node Connection,OFFICE_PRIVATE_0_Z3_ZONEEQUIPMENTINLET,AIRLOOPHVAC:SUPPLYPATH,OFFICE_PRIVATE_0_Z3,Inlet,1
 Parent Node Connection,BREAK_ROOM_1_Z4_ZONEEQUIPMENTINLET,AIRLOOPHVAC:SUPPLYPATH,BREAK_ROOM_1_Z4,Inlet,1
 Parent Node Connection,OFFICE_PRIVATE_1_Z5_ZONEEQUIPMENTINLET,AIRLOOPHVAC:SUPPLYPATH,OFFICE_PRIVATE_1_Z5,Inlet,1
 Parent Node Connection,STORAGE_1_Z6_ZONEEQUIPMENTINLET,AIRLOOPHVAC:SUPPLYPATH,STORAGE_1_Z6,Inlet,1
 Parent Node Connection,CONFERENCE_2_Z7_ZONEEQUIPMENTINLET,AIRLOOPHVAC:SUPPLYPATH,CONFERENCE_2_Z7,Inlet,1
 Parent Node Connection,BREAK_ROOM_2_Z8_ZONEEQUIPMENTINLET,AIRLOOPHVAC:SUPPLYPATH,BREAK_ROOM_2_Z8,Inlet,1
 Parent Node Connection,STORAGE_2_Z9_ZONEEQUIPMENTINLET,AIRLOOPHVAC:SUPPLYPATH,STORAGE_2_Z9,Inlet,1
 Parent Node Connection,LOBBY_3_Z10_ZONEEQUIPMENTINLET,AIRLOOPHVAC:SUPPLYPATH,LOBBY_3_Z10,Inlet,1
 Parent Node Connection,CONFERENCE_3_Z11_ZONEEQUIPMENTINLET,AIRLOOPHVAC:SUPPLYPATH,CONFERENCE_3_Z11,Inlet,1
 Parent Node Connection,MECHANICAL_4_Z12_ZONEEQUIPMENTINLET,AIRLOOPHVAC:SUPPLYPATH,MECHANICAL_4_Z12,Inlet,1
 Parent Node Connection,OFFICE_OPEN_4_Z13_ZONEEQUIPMENTINLET,AIRLOOPHVAC:SUPPLYPATH,OFFICE_OPEN_4_Z13,Inlet,1
 Parent Node Connection,STORAGE_4_Z14_ZONEEQUIPMENTINLET,AIRLOOPHVAC:SUPPLYPATH,STORAGE_4_Z14,Inlet,1
 Parent Node Connection,CONFERENCE_0_Z1_ZONEEQUIPMENTOUTLETNODE,AIRLOOPHVAC:RETURNPATH,CONFERENCE_0_Z1_RETURNAIRPATH,Outlet,1
 Parent Node Connection,OFFICE_OPEN_0_Z2_ZONEEQUIPMENTOUTLETNODE,AIRLOOPHVAC:RETURNPATH,OFFICE_OPEN_0_Z2_RETURNAIRPATH,Outlet,1
 Parent Node Connection,OFFICE_PRIVATE_0_Z3_ZONEEQUIPMENTOUTLETNODE,AIRLOOPHVAC:RETURNPATH,OFFICE_PRIVATE_0_Z3_RETURNAIRPATH,Outlet,1
 Parent Node Connection,BREAK_ROOM_1_Z4_ZONEEQUIPMENTOUTLETNODE,AIRLOOPHVAC:RETURNPATH,BREAK_ROOM_1_Z4_RETURNAIRPATH,Outlet,1
 Parent Node Connection,OFFICE_PRIVATE_1_Z5_ZONEEQUIPMENTOUTLETNODE,AIRLOOPHVAC:RETURNPATH,OFFICE_PRIVATE_1_Z5_RETURNAIRPATH,Outlet,1
 Parent Node Connection,STORAGE_1_Z6_ZONEEQUIPMENTOUTLETNODE,AIRLOOPHVAC:RETURNPATH,STORAGE_1_Z6_RETURNAIRPATH,Outlet,1
 Parent Node Connection,CONFERENCE_2_Z7_ZONEEQUIPMENTOUTLETNODE,AIRLOOPHVAC:RETURNPATH,CONFERENCE_2_Z7_RETURNAIRPATH,Outlet,1
 Parent Node Connection,BREAK_ROOM_2_Z8_ZONEEQUIPMENTOUTLETNODE,AIRLOOPHVAC:RETURNPATH,BREAK_ROOM_2_Z8_RETURNAIRPATH,Outlet,1
 Parent Node Connection,STORAGE_2_Z9_ZONEEQUIPMENTOUTLETNODE,AIRLOOPHVAC:RETURNPATH,STORAGE_2_Z9_RETURNAIRPATH,Outlet,1
 Parent Node Connection,LOBBY_3_Z10_ZONEEQUIPMENTOUTLETNODE,AIRLOOPHVAC:RETURNPATH,LOBBY_3_Z10_RETURNAIRPATH,Outlet,1
 Parent Node Connection,CONFERENCE_3_Z11_ZONEEQUIPMENTOUTLETNODE,AIRLOOPHVAC:RETURNPATH,CONFERENCE_3_Z11_RETURNAIRPATH,Outlet,1
 Parent Node Connection,MECHANICAL_4_Z12_ZONEEQUIPMENTOUTLETNODE,AIRLOOPHVAC:RETURNPATH,MECHANICAL_4_Z12_RETURNAIRPATH,Outlet,1
 Parent Node Connection,OFFICE_OPEN_4_Z13_ZONEEQUIPMENTOUTLETNODE,AIRLOOPHVAC:RETURNPATH,OFFICE_OPEN_4_Z13_RETURNAIRPATH,Outlet,1
 Parent Node Connection,STORAGE_4_Z14_ZONEEQUIPMENTOUTLETNODE,AIRLOOPHVAC:RETURNPATH,STORAGE_4_Z14_RETURNAIRPATH,Outlet,1
 Parent Node Connection,CONFERENCE_0_Z1_ADUOUTLET,ZONEHVAC:AIRDISTRIBUTIONUNIT,CONFERENCE_0_Z1_ADU,Outlet,1
 Parent Node Connection,OFFICE_OPEN_0_Z2_ADUOUTLET,ZONEHVAC:AIRDISTRIBUTIONUNIT,OFFICE_OPEN_0_Z2_ADU,Outlet,1
 Parent Node Connection,OFFICE_PRIVATE_0_Z3_ADUOUTLET,ZONEHVAC:AIRDISTRIBUTIONUNIT,OFFICE_PRIVATE_0_Z3_ADU,Outlet,1
 Parent Node Connection,BREAK_ROOM_1_Z4_ADUOUTLET,ZONEHVAC:AIRDISTRIBUTIONUNIT,BREAK_ROOM_1_Z4_ADU,Outlet,1
 Parent Node Connection,OFFICE_PRIVATE_1_Z5_ADUOUTLET,ZONEHVAC:AIRDISTRIBUTIONUNIT,OFFICE_PRIVATE_1_Z5_ADU,Outlet,1
 Parent Node Connection,STORAGE_1_Z6_ADUOUTLET,ZONEHVAC:AIRDISTRIBUTIONUNIT,STORAGE_1_Z6_ADU,Outlet,1
 Parent Node Connection,CONFERENCE_2_Z7_ADUOUTLET,ZONEHVAC:AIRDISTRIBUTIONUNIT,CONFERENCE_2_Z7_ADU,Outlet,1
 Parent Node Connection,BREAK_ROOM_2_Z8_ADUOUTLET,ZONEHVAC:AIRDISTRIBUTIONUNIT,BREAK_ROOM_2_Z8_ADU,Outlet,1
 Parent Node Connection,STORAGE_2_Z9_ADUOUTLET,ZONEHVAC:AIRDISTRIBUTIONUNIT,STORAGE_2_Z9_ADU,Outlet,1
 Parent Node Connection,LOBBY_3_Z10_ADUOUTLET,ZONEHVAC:AIRDISTRIBUTIONUNIT,LOBBY_3_Z10_ADU,Outlet,1
 Parent Node Connection,CONFERENCE_3_Z11_ADUOUTLET,ZONEHVAC:AIRDISTRIBUTIONUNIT,CONFERENCE_3_Z11_ADU,Outlet,1
 Parent Node Connection,MECHANICAL_4_Z12_ADUOUTLET,ZONEHVAC:AIRDISTRIBUTIONUNIT,MECHANICAL_4_Z12_ADU,Outlet,1
 Parent Node Connection,OFFICE_OPEN_4_Z13_ADUOUTLET,ZONEHVAC:AIRDISTRIBUTIONUNIT,OFFICE_OPEN_4_Z13_ADU,Outlet,1
 Parent Node Connection,STORAGE_4_Z14_ADUOUTLET,ZONEHVAC:AIRDISTRIBUTIONUNIT,STORAGE_4_Z14_ADU,Outlet,1
 Parent Node Connection,CONFERENCE_0_Z1_ADUOUTLET,AIRTERMINAL:SINGLEDUCT:VAV:REHEAT,CONFERENCE_0_Z1_VAVTERMINAL,Outlet,1
 Parent Node Connection,OFFICE_OPEN_0_Z2_ADUOUTLET,AIRTERMINAL:SINGLEDUCT:VAV:REHEAT,OFFICE_OPEN_0_Z2_VAVTERMINAL,Outlet,1
 Parent Node Connection,OFFICE_PRIVATE_0_Z3_ADUOUTLET,AIRTERMINAL:SINGLEDUCT:VAV:REHEAT,OFFICE_PRIVATE_0_Z3_VAVTERMINAL,Outlet,1
 Parent Node Connection,BREAK_ROOM_1_Z4_ADUOUTLET,AIRTERMINAL:SINGLEDUCT:VAV:REHEAT,BREAK_ROOM_1_Z4_VAVTERMINAL,Outlet,1
 Parent Node Connection,OFFICE_PRIVATE_1_Z5_ADUOUTLET,AIRTERMINAL:SINGLEDUCT:VAV:REHEAT,OFFICE_PRIVATE_1_Z5_VAVTERMINAL,Outlet,1
 Parent Node Connection,STORAGE_1_Z6_ADUOUTLET,AIRTERMINAL:SINGLEDUCT:VAV:REHEAT,STORAGE_1_Z6_VAVTERMINAL,Outlet,1
 Parent Node Connection,CONFERENCE_2_Z7_ADUOUTLET,AIRTERMINAL:SINGLEDUCT:VAV:REHEAT,CONFERENCE_2_Z7_VAVTERMINAL,Outlet,1
 Parent Node Connection,BREAK_ROOM_2_Z8_ADUOUTLET,AIRTERMINAL:SINGLEDUCT:VAV:REHEAT,BREAK_ROOM_2_Z8_VAVTERMINAL,Outlet,1
 Parent Node Connection,STORAGE_2_Z9_ADUOUTLET,AIRTERMINAL:SINGLEDUCT:VAV:REHEAT,STORAGE_2_Z9_VAVTERMINAL,Outlet,1
 Parent Node Connection,LOBBY_3_Z10_ADUOUTLET,AIRTERMINAL:SINGLEDUCT:VAV:REHEAT,LOBBY_3_Z10_VAVTERMINAL,Outlet,1
 Parent Node Connection,CONFERENCE_3_Z11_ADUOUTLET,AIRTERMINAL:SINGLEDUCT:VAV:REHEAT,CONFERENCE_3_Z11_VAVTERMINAL,Outlet,1
 Parent Node Connection,MECHANICAL_4_Z12_ADUOUTLET,AIRTERMINAL:SINGLEDUCT:VAV:REHEAT,MECHANICAL_4_Z12_VAVTERMINAL,Outlet,1
 Parent Node Connection,OFFICE_OPEN_4_Z13_ADUOUTLET,AIRTERMINAL:SINGLEDUCT:VAV:REHEAT,OFFICE_OPEN_4_Z13_VAVTERMINAL,Outlet,1
 Parent Node Connection,STORAGE_4_Z14_ADUOUTLET,AIRTERMINAL:SINGLEDUCT:VAV:REHEAT,STORAGE_4_Z14_VAVTERMINAL,Outlet,1
 Parent Node Connection,CONFERENCE_0_Z1_SUPPLYINLET,AIRLOOPHVAC,CONFERENCE_0_Z1_AIRLOOP,Inlet,1
 Parent Node Connection,CONFERENCE_0_Z1_ZONEEQUIPMENTOUTLETNODE,AIRLOOPHVAC,CONFERENCE_0_Z1_AIRLOOP,Outlet,1
 Parent Node Connection,CONFERENCE_0_Z1_ZONEEQUIPMENTINLET,AIRLOOPHVAC,CONFERENCE_0_Z1_AIRLOOP,Inlet,1
 Parent Node Connection,CONFERENCE_0_Z1_SUPPLYEQUIPMENTOUTLETNODE,AIRLOOPHVAC,CONFERENCE_0_Z1_AIRLOOP,Outlet,1
 Parent Node Connection,OFFICE_OPEN_0_Z2_SUPPLYINLET,AIRLOOPHVAC,OFFICE_OPEN_0_Z2_AIRLOOP,Inlet,1
[...]
 Non-Parent Node Connection,STORAGE_2_Z9_TERMINALOUTLET,AIRTERMINAL:SINGLEDUCT:VAV:REHEAT,STORAGE_2_Z9_VAVTERMINAL,Outlet,1
 Non-Parent Node Connection,STORAGE_2_Z9_TERMINALINLET,AIRTERMINAL:SINGLEDUCT:VAV:REHEAT,STORAGE_2_Z9_VAVTERMINAL,Inlet,1
 Non-Parent Node Connection,LOBBY_3_Z10_TERMINALOUTLET,AIRTERMINAL:SINGLEDUCT:VAV:REHEAT,LOBBY_3_Z10_VAVTERMINAL,Outlet,1
 Non-Parent Node Connection,LOBBY_3_Z10_TERMINALINLET,AIRTERMINAL:SINGLEDUCT:VAV:REHEAT,LOBBY_3_Z10_VAVTERMINAL,Inlet,1
 Non-Parent Node Connection,CONFERENCE_3_Z11_TERMINALOUTLET,AIRTERMINAL:SINGLEDUCT:VAV:REHEAT,CONFERENCE_3_Z11_VAVTERMINAL,Outlet,1
 Non-Parent Node Connection,CONFERENCE_3_Z11_TERMINALINLET,AIRTERMINAL:SINGLEDUCT:VAV:REHEAT,CONFERENCE_3_Z11_VAVTERMINAL,Inlet,1
 Non-Parent Node Connection,MECHANICAL_4_Z12_TERMINALOUTLET,AIRTERMINAL:SINGLEDUCT:VAV:REHEAT,MECHANICAL_4_Z12_VAVTERMINAL,Outlet,1
 Non-Parent Node Connection,MECHANICAL_4_Z12_TERMINALINLET,AIRTERMINAL:SINGLEDUCT:VAV:REHEAT,MECHANICAL_4_Z12_VAVTERMINAL,Inlet,1
 Non-Parent Node Connection,OFFICE_OPEN_4_Z13_TERMINALOUTLET,AIRTERMINAL:SINGLEDUCT:VAV:REHEAT,OFFICE_OPEN_4_Z13_VAVTERMINAL,Outlet,1
 Non-Parent Node Connection,OFFICE_OPEN_4_Z13_TERMINALINLET,AIRTERMINAL:SINGLEDUCT:VAV:REHEAT,OFFICE_OPEN_4_Z13_VAVTERMINAL,Inlet,1
 Non-Parent Node Connection,STORAGE_4_Z14_TERMINALOUTLET,AIRTERMINAL:SINGLEDUCT:VAV:REHEAT,STORAGE_4_Z14_VAVTERMINAL,Outlet,1
 Non-Parent Node Connection,STORAGE_4_Z14_TERMINALINLET,AIRTERMINAL:SINGLEDUCT:VAV:REHEAT,STORAGE_4_Z14_VAVTERMINAL,Inlet,1
 Non-Parent Node Connection,CONFERENCE_0_Z1_COOLC-HEATCNODE,COIL:HEATING:ELECTRIC,CONFERENCE_0_Z1_HEATINGCOIL,Inlet,1
 Non-Parent Node Connection,CONFERENCE_0_Z1_HEATC-FANNODE,COIL:HEATING:ELECTRIC,CONFERENCE_0_Z1_HEATINGCOIL,Outlet,1
 Non-Parent Node Connection,CONFERENCE_0_Z1_HEATC-FANNODE,COIL:HEATING:ELECTRIC,CONFERENCE_0_Z1_HEATINGCOIL,Sensor,1
 Non-Parent Node Connection,CONFERENCE_0_Z1_TERMINALOUTLET,COIL:HEATING:ELECTRIC,CONFERENCE_0_Z1_REHEATCOIL,Inlet,1
 Non-Parent Node Connection,CONFERENCE_0_Z1_ADUOUTLET,COIL:HEATING:ELECTRIC,CONFERENCE_0_Z1_REHEATCOIL,Outlet,1
 Non-Parent Node Connection,OFFICE_OPEN_0_Z2_COOLC-HEATCNODE,COIL:HEATING:ELECTRIC,OFFICE_OPEN_0_Z2_HEATINGCOIL,Inlet,1
 Non-Parent Node Connection,OFFICE_OPEN_0_Z2_HEATC-FANNODE,COIL:HEATING:ELECTRIC,OFFICE_OPEN_0_Z2_HEATINGCOIL,Outlet,1
 Non-Parent Node Connection,OFFICE_OPEN_0_Z2_HEATC-FANNODE,COIL:HEATING:ELECTRIC,OFFICE_OPEN_0_Z2_HEATINGCOIL,Sensor,1
 Non-Parent Node Connection,OFFICE_OPEN_0_Z2_TERMINALOUTLET,COIL:HEATING:ELECTRIC,OFFICE_OPEN_0_Z2_REHEATCOIL,Inlet,1
 Non-Parent Node Connection,OFFICE_OPEN_0_Z2_ADUOUTLET,COIL:HEATING:ELECTRIC,OFFICE_OPEN_0_Z2_REHEATCOIL,Outlet,1
 Non-Parent Node Connection,OFFICE_PRIVATE_0_Z3_COOLC-HEATCNODE,COIL:HEATING:ELECTRIC,OFFICE_PRIVATE_0_Z3_HEATINGCOIL,Inlet,1
 Non-Parent Node Connection,OFFICE_PRIVATE_0_Z3_HEATC-FANNODE,COIL:HEATING:ELECTRIC,OFFICE_PRIVATE_0_Z3_HEATINGCOIL,Outlet,1
 Non-Parent Node Connection,OFFICE_PRIVATE_0_Z3_HEATC-FANNODE,COIL:HEATING:ELECTRIC,OFFICE_PRIVATE_0_Z3_HEATINGCOIL,Sensor,1
 Non-Parent Node Connection,OFFICE_PRIVATE_0_Z3_TERMINALOUTLET,COIL:HEATING:ELECTRIC,OFFICE_PRIVATE_0_Z3_REHEATCOIL,Inlet,1
 Non-Parent Node Connection,OFFICE_PRIVATE_0_Z3_ADUOUTLET,COIL:HEATING:ELECTRIC,OFFICE_PRIVATE_0_Z3_REHEATCOIL,Outlet,1
 Non-Parent Node Connection,BREAK_ROOM_1_Z4_COOLC-HEATCNODE,COIL:HEATING:ELECTRIC,BREAK_ROOM_1_Z4_HEATINGCOIL,Inlet,1
 Non-Parent Node Connection,BREAK_ROOM_1_Z4_HEATC-FANNODE,COIL:HEATING:ELECTRIC,BREAK_ROOM_1_Z4_HEATINGCOIL,Outlet,1
 Non-Parent Node Connection,BREAK_ROOM_1_Z4_HEATC-FANNODE,COIL:HEATING:ELECTRIC,BREAK_ROOM_1_Z4_HEATINGCOIL,Sensor,1
 Non-Parent Node Connection,BREAK_ROOM_1_Z4_TERMINALOUTLET,COIL:HEATING:ELECTRIC,BREAK_ROOM_1_Z4_REHEATCOIL,Inlet,1
 Non-Parent Node Connection,BREAK_ROOM_1_Z4_ADUOUTLET,COIL:HEATING:ELECTRIC,BREAK_ROOM_1_Z4_REHEATCOIL,Outlet,1
 Non-Parent Node Connection,OFFICE_PRIVATE_1_Z5_COOLC-HEATCNODE,COIL:HEATING:ELECTRIC,OFFICE_PRIVATE_1_Z5_HEATINGCOIL,Inlet,1
 Non-Parent Node Connection,OFFICE_PRIVATE_1_Z5_HEATC-FANNODE,COIL:HEATING:ELECTRIC,OFFICE_PRIVATE_1_Z5_HEATINGCOIL,Outlet,1
 Non-Parent Node Connection,OFFICE_PRIVATE_1_Z5_HEATC-FANNODE,COIL:HEATING:ELECTRIC,OFFICE_PRIVATE_1_Z5_HEATINGCOIL,Sensor,1
 Non-Parent Node Connection,OFFICE_PRIVATE_1_Z5_TERMINALOUTLET,COIL:HEATING:ELECTRIC,OFFICE_PRIVATE_1_Z5_REHEATCOIL,Inlet,1
 Non-Parent Node Connection,OFFICE_PRIVATE_1_Z5_ADUOUTLET,COIL:HEATING:ELECTRIC,OFFICE_PRIVATE_1_Z5_REHEATCOIL,Outlet,1
 Non-Parent Node Connection,STORAGE_1_Z6_COOLC-HEATCNODE,COIL:HEATING:ELECTRIC,STORAGE_1_Z6_HEATINGCOIL,Inlet,1
 Non-Parent Node Connection,STORAGE_1_Z6_HEATC-FANNODE,COIL:HEATING:ELECTRIC,STORAGE_1_Z6_HEATINGCOIL,Outlet,1
 Non-Parent Node Connection,STORAGE_1_Z6_HEATC-FANNODE,COIL:HEATING:ELECTRIC,STORAGE_1_Z6_HEATINGCOIL,Sensor,1
 Non-Parent Node Connection,STORAGE_1_Z6_TERMINALOUTLET,COIL:HEATING:ELECTRIC,STORAGE_1_Z6_REHEATCOIL,Inlet,1
 Non-Parent Node Connection,STORAGE_1_Z6_ADUOUTLET,COIL:HEATING:ELECTRIC,STORAGE_1_Z6_REHEATCOIL,Outlet,1
 Non-Parent Node Connection,CONFERENCE_2_Z7_COOLC-HEATCNODE,COIL:HEATING:ELECTRIC,CONFERENCE_2_Z7_HEATINGCOIL,Inlet,1
 Non-Parent Node Connection,CONFERENCE_2_Z7_HEATC-FANNODE,COIL:HEATING:ELECTRIC,CONFERENCE_2_Z7_HEATINGCOIL,Outlet,1
 Non-Parent Node Connection,CONFERENCE_2_Z7_HEATC-FANNODE,COIL:HEATING:ELECTRIC,CONFERENCE_2_Z7_HEATINGCOIL,Sensor,1
 Non-Parent Node Connection,CONFERENCE_2_Z7_TERMINALOUTLET,COIL:HEATING:ELECTRIC,CONFERENCE_2_Z7_REHEATCOIL,Inlet,1
 Non-Parent Node Connection,CONFERENCE_2_Z7_ADUOUTLET,COIL:HEATING:ELECTRIC,CONFERENCE_2_Z7_REHEATCOIL,Outlet,1
 Non-Parent Node Connection,BREAK_ROOM_2_Z8_COOLC-HEATCNODE,COIL:HEATING:ELECTRIC,BREAK_ROOM_2_Z8_HEATINGCOIL,Inlet,1
 Non-Parent Node Connection,BREAK_ROOM_2_Z8_HEATC-FANNODE,COIL:HEATING:ELECTRIC,BREAK_ROOM_2_Z8_HEATINGCOIL,Outlet,1
 Non-Parent Node Connection,BREAK_ROOM_2_Z8_HEATC-FANNODE,COIL:HEATING:ELECTRIC,BREAK_ROOM_2_Z8_HEATINGCOIL,Sensor,1
 Non-Parent Node Connection,BREAK_ROOM_2_Z8_TERMINALOUTLET,COIL:HEATING:ELECTRIC,BREAK_ROOM_2_Z8_REHEATCOIL,Inlet,1
 Non-Parent Node Connection,BREAK_ROOM_2_Z8_ADUOUTLET,COIL:HEATING:ELECTRIC,BREAK_ROOM_2_Z8_REHEATCOIL,Outlet,1
 Non-Parent Node Connection,STORAGE_2_Z9_COOLC-HEATCNODE,COIL:HEATING:ELECTRIC,STORAGE_2_Z9_HEATINGCOIL,Inlet,1
 Non-Parent Node Connection,STORAGE_2_Z9_HEATC-FANNODE,COIL:HEATING:ELECTRIC,STORAGE_2_Z9_HEATINGCOIL,Outlet,1
 Non-Parent Node Connection,STORAGE_2_Z9_HEATC-FANNODE,COIL:HEATING:ELECTRIC,STORAGE_2_Z9_HEATINGCOIL,Sensor,1
 Non-Parent Node Connection,STORAGE_2_Z9_TERMINALOUTLET,COIL:HEATING:ELECTRIC,STORAGE_2_Z9_REHEATCOIL,Inlet,1
 Non-Parent Node Connection,STORAGE_2_Z9_ADUOUTLET,COIL:HEATING:ELECTRIC,STORAGE_2_Z9_REHEATCOIL,Outlet,1
 Non-Parent Node Connection,LOBBY_3_Z10_COOLC-HEATCNODE,COIL:HEATING:ELECTRIC,LOBBY_3_Z10_HEATINGCOIL,Inlet,1
 Non-Parent Node Connection,LOBBY_3_Z10_HEATC-FANNODE,COIL:HEATING:ELECTRIC,LOBBY_3_Z10_HEATINGCOIL,Outlet,1
 Non-Parent Node Connection,LOBBY_3_Z10_HEATC-FANNODE,COIL:HEATING:ELECTRIC,LOBBY_3_Z10_HEATINGCOIL,Sensor,1
 Non-Parent Node Connection,LOBBY_3_Z10_TERMINALOUTLET,COIL:HEATING:ELECTRIC,LOBBY_3_Z10_REHEATCOIL,Inlet,1
 Non-Parent Node Connection,LOBBY_3_Z10_ADUOUTLET,COIL:HEATING:ELECTRIC,LOBBY_3_Z10_REHEATCOIL,Outlet,1
 Non-Parent Node Connection,CONFERENCE_3_Z11_COOLC-HEATCNODE,COIL:HEATING:ELECTRIC,CONFERENCE_3_Z11_HEATINGCOIL,Inlet,1
 Non-Parent Node Connection,CONFERENCE_3_Z11_HEATC-FANNODE,COIL:HEATING:ELECTRIC,CONFERENCE_3_Z11_HEATINGCOIL,Outlet,1
 Non-Parent Node Connection,CONFERENCE_3_Z11_HEATC-FANNODE,COIL:HEATING:ELECTRIC,CONFERENCE_3_Z11_HEATINGCOIL,Sensor,1
 Non-Parent Node Connection,CONFERENCE_3_Z11_TERMINALOUTLET,COIL:HEATING:ELECTRIC,CONFERENCE_3_Z11_REHEATCOIL,Inlet,1
 Non-Parent Node Connection,CONFERENCE_3_Z11_ADUOUTLET,COIL:HEATING:ELECTRIC,CONFERENCE_3_Z11_REHEATCOIL,Outlet,1
 Non-Parent Node Connection,MECHANICAL_4_Z12_COOLC-HEATCNODE,COIL:HEATING:ELECTRIC,MECHANICAL_4_Z12_HEATINGCOIL,Inlet,1
 Non-Parent Node Connection,MECHANICAL_4_Z12_HEATC-FANNODE,COIL:HEATING:ELECTRIC,MECHANICAL_4_Z12_HEATINGCOIL,Outlet,1
 Non-Parent Node Connection,MECHANICAL_4_Z12_HEATC-FANNODE,COIL:HEATING:ELECTRIC,MECHANICAL_4_Z12_HEATINGCOIL,Sensor,1
 Non-Parent Node Connection,MECHANICAL_4_Z12_TERMINALOUTLET,COIL:HEATING:ELECTRIC,MECHANICAL_4_Z12_REHEATCOIL,Inlet,1
 Non-Parent Node Connection,MECHANICAL_4_Z12_ADUOUTLET,COIL:HEATING:ELECTRIC,MECHANICAL_4_Z12_REHEATCOIL,Outlet,1
 Non-Parent Node Connection,OFFICE_OPEN_4_Z13_COOLC-HEATCNODE,COIL:HEATING:ELECTRIC,OFFICE_OPEN_4_Z13_HEATINGCOIL,Inlet,1
 Non-Parent Node Connection,OFFICE_OPEN_4_Z13_HEATC-FANNODE,COIL:HEATING:ELECTRIC,OFFICE_OPEN_4_Z13_HEATINGCOIL,Outlet,1
 Non-Parent Node Connection,OFFICE_OPEN_4_Z13_HEATC-FANNODE,COIL:HEATING:ELECTRIC,OFFICE_OPEN_4_Z13_HEATINGCOIL,Sensor,1
 Non-Parent Node Connection,OFFICE_OPEN_4_Z13_TERMINALOUTLET,COIL:HEATING:ELECTRIC,OFFICE_OPEN_4_Z13_REHEATCOIL,Inlet,1
 Non-Parent Node Connection,OFFICE_OPEN_4_Z13_ADUOUTLET,COIL:HEATING:ELECTRIC,OFFICE_OPEN_4_Z13_REHEATCOIL,Outlet,1
 Non-Parent Node Connection,STORAGE_4_Z14_COOLC-HEATCNODE,COIL:HEATING:ELECTRIC,STORAGE_4_Z14_HEATINGCOIL,Inlet,1
 Non-Parent Node Connection,STORAGE_4_Z14_HEATC-FANNODE,COIL:HEATING:ELECTRIC,STORAGE_4_Z14_HEATINGCOIL,Outlet,1
 Non-Parent Node Connection,STORAGE_4_Z14_HEATC-FANNODE,COIL:HEATING:ELECTRIC,STORAGE_4_Z14_HEATINGCOIL,Sensor,1
 Non-Parent Node Connection,STORAGE_4_Z14_TERMINALOUTLET,COIL:HEATING:ELECTRIC,STORAGE_4_Z14_REHEATCOIL,Inlet,1
 Non-Parent Node Connection,STORAGE_4_Z14_ADUOUTLET,COIL:HEATING:ELECTRIC,STORAGE_4_Z14_REHEATCOIL,Outlet,1
 Non-Parent Node Connection,CONFERENCE_0_Z1_ZONEEQUIPMENTOUTLETNODE,AIRLOOPHVAC:ZONEMIXER,CONFERENCE_0_Z1_RETURNAIRMIXER,Outlet,1
 Non-Parent Node Connection,CONFERENCE_0_Z1_RETURNAIR,AIRLOOPHVAC:ZONEMIXER,CONFERENCE_0_Z1_RETURNAIRMIXER,Inlet,1
 Non-Parent Node Connection,OFFICE_OPEN_0_Z2_ZONEEQUIPMENTOUTLETNODE,AIRLOOPHVAC:ZONEMIXER,OFFICE_OPEN_0_Z2_RETURNAIRMIXER,Outlet,1
 Non-Parent Node Connection,OFFICE_OPEN_0_Z2_RETURNAIR,AIRLOOPHVAC:ZONEMIXER,OFFICE_OPEN_0_Z2_RETURNAIRMIXER,Inlet,1
 Non-Parent Node Connection,OFFICE_PRIVATE_0_Z3_ZONEEQUIPMENTOUTLETNODE,AIRLOOPHVAC:ZONEMIXER,OFFICE_PRIVATE_0_Z3_RETURNAIRMIXER,Outlet,1
 Non-Parent Node Connection,OFFICE_PRIVATE_0_Z3_RETURNAIR,AIRLOOPHVAC:ZONEMIXER,OFFICE_PRIVATE_0_Z3_RETURNAIRMIXER,Inlet,1
 Non-Parent Node Connection,BREAK_ROOM_1_Z4_ZONEEQUIPMENTOUTLETNODE,AIRLOOPHVAC:ZONEMIXER,BREAK_ROOM_1_Z4_RETURNAIRMIXER,Outlet,1
 Non-Parent Node Connection,BREAK_ROOM_1_Z4_RETURNAIR,AIRLOOPHVAC:ZONEMIXER,BREAK_ROOM_1_Z4_RETURNAIRMIXER,Inlet,1
 Non-Parent Node Connection,OFFICE_PRIVATE_1_Z5_ZONEEQUIPMENTOUTLETNODE,AIRLOOPHVAC:ZONEMIXER,OFFICE_PRIVATE_1_Z5_RETURNAIRMIXER,Outlet,1
 Non-Parent Node Connection,OFFICE_PRIVATE_1_Z5_RETURNAIR,AIRLOOPHVAC:ZONEMIXER,OFFICE_PRIVATE_1_Z5_RETURNAIRMIXER,Inlet,1
 Non-Parent Node Connection,STORAGE_1_Z6_ZONEEQUIPMENTOUTLETNODE,AIRLOOPHVAC:ZONEMIXER,STORAGE_1_Z6_RETURNAIRMIXER,Outlet,1
 Non-Parent Node Connection,STORAGE_1_Z6_RETURNAIR,AIRLOOPHVAC:ZONEMIXER,STORAGE_1_Z6_RETURNAIRMIXER,Inlet,1
 Non-Parent Node Connection,CONFERENCE_2_Z7_ZONEEQUIPMENTOUTLETNODE,AIRLOOPHVAC:ZONEMIXER,CONFERENCE_2_Z7_RETURNAIRMIXER,Outlet,1
 Non-Parent Node Connection,CONFERENCE_2_Z7_RETURNAIR,AIRLOOPHVAC:ZONEMIXER,CONFERENCE_2_Z7_RETURNAIRMIXER,Inlet,1
 Non-Parent Node Connection,BREAK_ROOM_2_Z8_ZONEEQUIPMENTOUTLETNODE,AIRLOOPHVAC:ZONEMIXER,BREAK_ROOM_2_Z8_RETURNAIRMIXER,Outlet,1
 Non-Parent Node Connection,BREAK_ROOM_2_Z8_RETURNAIR,AIRLOOPHVAC:ZONEMIXER,BREAK_ROOM_2_Z8_RETURNAIRMIXER,Inlet,1
 Non-Parent Node Connection,STORAGE_2_Z9_ZONEEQUIPMENTOUTLETNODE,AIRLOOPHVAC:ZONEMIXER,STORAGE_2_Z9_RETURNAIRMIXER,Outlet,1
 Non-Parent Node Connection,STORAGE_2_Z9_RETURNAIR,AIRLOOPHVAC:ZONEMIXER,STORAGE_2_Z9_RETURNAIRMIXER,Inlet,1
 Non-Parent Node Connection,LOBBY_3_Z10_ZONEEQUIPMENTOUTLETNODE,AIRLOOPHVAC:ZONEMIXER,LOBBY_3_Z10_RETURNAIRMIXER,Outlet,1
 Non-Parent Node Connection,LOBBY_3_Z10_RETURNAIR,AIRLOOPHVAC:ZONEMIXER,LOBBY_3_Z10_RETURNAIRMIXER,Inlet,1
 Non-Parent Node Connection,CONFERENCE_3_Z11_ZONEEQUIPMENTOUTLETNODE,AIRLOOPHVAC:ZONEMIXER,CONFERENCE_3_Z11_RETURNAIRMIXER,Outlet,1
 Non-Parent Node Connection,CONFERENCE_3_Z11_RETURNAIR,AIRLOOPHVAC:ZONEMIXER,CONFERENCE_3_Z11_RETURNAIRMIXER,Inlet,1
 Non-Parent Node Connection,MECHANICAL_4_Z12_ZONEEQUIPMENTOUTLETNODE,AIRLOOPHVAC:ZONEMIXER,MECHANICAL_4_Z12_RETURNAIRMIXER,Outlet,1
 Non-Parent Node Connection,MECHANICAL_4_Z12_RETURNAIR,AIRLOOPHVAC:ZONEMIXER,MECHANICAL_4_Z12_RETURNAIRMIXER,Inlet,1
 Non-Parent Node Connection,OFFICE_OPEN_4_Z13_ZONEEQUIPMENTOUTLETNODE,AIRLOOPHVAC:ZONEMIXER,OFFICE_OPEN_4_Z13_RETURNAIRMIXER,Outlet,1
 Non-Parent Node Connection,OFFICE_OPEN_4_Z13_RETURNAIR,AIRLOOPHVAC:ZONEMIXER,OFFICE_OPEN_4_Z13_RETURNAIRMIXER,Inlet,1
 Non-Parent Node Connection,STORAGE_4_Z14_ZONEEQUIPMENTOUTLETNODE,AIRLOOPHVAC:ZONEMIXER,STORAGE_4_Z14_RETURNAIRMIXER,Outlet,1
 Non-Parent Node Connection,STORAGE_4_Z14_RETURNAIR,AIRLOOPHVAC:ZONEMIXER,STORAGE_4_Z14_RETURNAIRMIXER,Inlet,1
 Non-Parent Node Connection,CONFERENCE_0_Z1_HEATC-FANNODE,FAN:VARIABLEVOLUME,CONFERENCE_0_Z1_SUPPLYFAN,Inlet,1
 Non-Parent Node Connection,CONFERENCE_0_Z1_SUPPLYEQUIPMENTOUTLETNODE,FAN:VARIABLEVOLUME,CONFERENCE_0_Z1_SUPPLYFAN,Outlet,1
 Non-Parent Node Connection,OFFICE_OPEN_0_Z2_HEATC-FANNODE,FAN:VARIABLEVOLUME,OFFICE_OPEN_0_Z2_SUPPLYFAN,Inlet,1
 Non-Parent Node Connection,OFFICE_OPEN_0_Z2_SUPPLYEQUIPMENTOUTLETNODE,FAN:VARIABLEVOLUME,OFFICE_OPEN_0_Z2_SUPPLYFAN,Outlet,1
 Non-Parent Node Connection,OFFICE_PRIVATE_0_Z3_HEATC-FANNODE,FAN:VARIABLEVOLUME,OFFICE_PRIVATE_0_Z3_SUPPLYFAN,Inlet,1
 Non-Parent Node Connection,OFFICE_PRIVATE_0_Z3_SUPPLYEQUIPMENTOUTLETNODE,FAN:VARIABLEVOLUME,OFFICE_PRIVATE_0_Z3_SUPPLYFAN,Outlet,1
 Non-Parent Node Connection,BREAK_ROOM_1_Z4_HEATC-FANNODE,FAN:VARIABLEVOLUME,BREAK_ROOM_1_Z4_SUPPLYFAN,Inlet,1
 Non-Parent Node Connection,BREAK_ROOM_1_Z4_SUPPLYEQUIPMENTOUTLETNODE,FAN:VARIABLEVOLUME,BREAK_ROOM_1_Z4_SUPPLYFAN,Outlet,1
 Non-Parent Node Connection,OFFICE_PRIVATE_1_Z5_HEATC-FANNODE,FAN:VARIABLEVOLUME,OFFICE_PRIVATE_1_Z5_SUPPLYFAN,Inlet,1
 Non-Parent Node Connection,OFFICE_PRIVATE_1_Z5_SUPPLYEQUIPMENTOUTLETNODE,FAN:VARIABLEVOLUME,OFFICE_PRIVATE_1_Z5_SUPPLYFAN,Outlet,1
 Non-Parent Node Connection,STORAGE_1_Z6_HEATC-FANNODE,FAN:VARIABLEVOLUME,STORAGE_1_Z6_SUPPLYFAN,Inlet,1
 Non-Parent Node Connection,STORAGE_1_Z6_SUPPLYEQUIPMENTOUTLETNODE,FAN:VARIABLEVOLUME,STORAGE_1_Z6_SUPPLYFAN,Outlet,1
 Non-Parent Node Connection,CONFERENCE_2_Z7_HEATC-FANNODE,FAN:VARIABLEVOLUME,CONFERENCE_2_Z7_SUPPLYFAN,Inlet,1
 Non-Parent Node Connection,CONFERENCE_2_Z7_SUPPLYEQUIPMENTOUTLETNODE,FAN:VARIABLEVOLUME,CONFERENCE_2_Z7_SUPPLYFAN,Outlet,1
 Non-Parent Node Connection,BREAK_ROOM_2_Z8_HEATC-FANNODE,FAN:VARIABLEVOLUME,BREAK_ROOM_2_Z8_SUPPLYFAN,Inlet,1
 Non-Parent Node Connection,BREAK_ROOM_2_Z8_SUPPLYEQUIPMENTOUTLETNODE,FAN:VARIABLEVOLUME,BREAK_ROOM_2_Z8_SUPPLYFAN,Outlet,1
 Non-Parent Node Connection,STORAGE_2_Z9_HEATC-FANNODE,FAN:VARIABLEVOLUME,STORAGE_2_Z9_SUPPLYFAN,Inlet,1
 Non-Parent Node Connection,STORAGE_2_Z9_SUPPLYEQUIPMENTOUTLETNODE,FAN:VARIABLEVOLUME,STORAGE_2_Z9_SUPPLYFAN,Outlet,1
 Non-Parent Node Connection,LOBBY_3_Z10_HEATC-FANNODE,FAN:VARIABLEVOLUME,LOBBY_3_Z10_SUPPLYFAN,Inlet,1
 Non-Parent Node Connection,LOBBY_3_Z10_SUPPLYEQUIPMENTOUTLETNODE,FAN:VARIABLEVOLUME,LOBBY_3_Z10_SUPPLYFAN,Outlet,1
 Non-Parent Node Connection,CONFERENCE_3_Z11_HEATC-FANNODE,FAN:VARIABLEVOLUME,CONFERENCE_3_Z11_SUPPLYFAN,Inlet,1
 Non-Parent Node Connection,CONFERENCE_3_Z11_SUPPLYEQUIPMENTOUTLETNODE,FAN:VARIABLEVOLUME,CONFERENCE_3_Z11_SUPPLYFAN,Outlet,1
 Non-Parent Node Connection,MECHANICAL_4_Z12_HEATC-FANNODE,FAN:VARIABLEVOLUME,MECHANICAL_4_Z12_SUPPLYFAN,Inlet,1
 Non-Parent Node Connection,MECHANICAL_4_Z12_SUPPLYEQUIPMENTOUTLETNODE,FAN:VARIABLEVOLUME,MECHANICAL_4_Z12_SUPPLYFAN,Outlet,1
 Non-Parent Node Connection,OFFICE_OPEN_4_Z13_HEATC-FANNODE,FAN:VARIABLEVOLUME,OFFICE_OPEN_4_Z13_SUPPLYFAN,Inlet,1
 Non-Parent Node Connection,OFFICE_OPEN_4_Z13_SUPPLYEQUIPMENTOUTLETNODE,FAN:VARIABLEVOLUME,OFFICE_OPEN_4_Z13_SUPPLYFAN,Outlet,1
 Non-Parent Node Connection,STORAGE_4_Z14_HEATC-FANNODE,FAN:VARIABLEVOLUME,STORAGE_4_Z14_SUPPLYFAN,Inlet,1
 Non-Parent Node Connection,STORAGE_4_Z14_SUPPLYEQUIPMENTOUTLETNODE,FAN:VARIABLEVOLUME,STORAGE_4_Z14_SUPPLYFAN,Outlet,1
 Non-Parent Node Connection,CONFERENCE_0_Z1_SUPPLYINLET,COIL:COOLING:DX:SINGLESPEED,CONFERENCE_0_Z1_COOLINGCOILDX,Inlet,1
 Non-Parent Node Connection,CONFERENCE_0_Z1_COOLC-HEATCNODE,COIL:COOLING:DX:SINGLESPEED,CONFERENCE_0_Z1_COOLINGCOILDX,Outlet,1
 Non-Parent Node Connection,OFFICE_OPEN_0_Z2_SUPPLYINLET,COIL:COOLING:DX:SINGLESPEED,OFFICE_OPEN_0_Z2_COOLINGCOILDX,Inlet,1
 Non-Parent Node Connection,OFFICE_OPEN_0_Z2_COOLC-HEATCNODE,COIL:COOLING:DX:SINGLESPEED,OFFICE_OPEN_0_Z2_COOLINGCOILDX,Outlet,1
 Non-Parent Node Connection,OFFICE_PRIVATE_0_Z3_SUPPLYINLET,COIL:COOLING:DX:SINGLESPEED,OFFICE_PRIVATE_0_Z3_COOLINGCOILDX,Inlet,1
 Non-Parent Node Connection,OFFICE_PRIVATE_0_Z3_COOLC-HEATCNODE,COIL:COOLING:DX:SINGLESPEED,OFFICE_PRIVATE_0_Z3_COOLINGCOILDX,Outlet,1
 Non-Parent Node Connection,BREAK_ROOM_1_Z4_SUPPLYINLET,COIL:COOLING:DX:SINGLESPEED,BREAK_ROOM_1_Z4_COOLINGCOILDX,Inlet,1
 Non-Parent Node Connection,BREAK_ROOM_1_Z4_COOLC-HEATCNODE,COIL:COOLING:DX:SINGLESPEED,BREAK_ROOM_1_Z4_COOLINGCOILDX,Outlet,1
 Non-Parent Node Connection,OFFICE_PRIVATE_1_Z5_SUPPLYINLET,COIL:COOLING:DX:SINGLESPEED,OFFICE_PRIVATE_1_Z5_COOLINGCOILDX,Inlet,1
 Non-Parent Node Connection,OFFICE_PRIVATE_1_Z5_COOLC-HEATCNODE,COIL:COOLING:DX:SINGLESPEED,OFFICE_PRIVATE_1_Z5_COOLINGCOILDX,Outlet,1
 Non-Parent Node Connection,STORAGE_1_Z6_SUPPLYINLET,COIL:COOLING:DX:SINGLESPEED,STORAGE_1_Z6_COOLINGCOILDX,Inlet,1
 Non-Parent Node Connection,STORAGE_1_Z6_COOLC-HEATCNODE,COIL:COOLING:DX:SINGLESPEED,STORAGE_1_Z6_COOLINGCOILDX,Outlet,1
 Non-Parent Node Connection,CONFERENCE_2_Z7_SUPPLYINLET,COIL:COOLING:DX:SINGLESPEED,CONFERENCE_2_Z7_COOLINGCOILDX,Inlet,1
 Non-Parent Node Connection,CONFERENCE_2_Z7_COOLC-HEATCNODE,COIL:COOLING:DX:SINGLESPEED,CONFERENCE_2_Z7_COOLINGCOILDX,Outlet,1
 Non-Parent Node Connection,BREAK_ROOM_2_Z8_SUPPLYINLET,COIL:COOLING:DX:SINGLESPEED,BREAK_ROOM_2_Z8_COOLINGCOILDX,Inlet,1
 Non-Parent Node Connection,BREAK_ROOM_2_Z8_COOLC-HEATCNODE,COIL:COOLING:DX:SINGLESPEED,BREAK_ROOM_2_Z8_COOLINGCOILDX,Outlet,1
 Non-Parent Node Connection,STORAGE_2_Z9_SUPPLYINLET,COIL:COOLING:DX:SINGLESPEED,STORAGE_2_Z9_COOLINGCOILDX,Inlet,1
 Non-Parent Node Connection,STORAGE_2_Z9_COOLC-HEATCNODE,COIL:COOLING:DX:SINGLESPEED,STORAGE_2_Z9_COOLINGCOILDX,Outlet,1
 Non-Parent Node Connection,LOBBY_3_Z10_SUPPLYINLET,COIL:COOLING:DX:SINGLESPEED,LOBBY_3_Z10_COOLINGCOILDX,Inlet,1
 Non-Parent Node Connection,LOBBY_3_Z10_COOLC-HEATCNODE,COIL:COOLING:DX:SINGLESPEED,LOBBY_3_Z10_COOLINGCOILDX,Outlet,1
 Non-Parent Node Connection,CONFERENCE_3_Z11_SUPPLYINLET,COIL:COOLING:DX:SINGLESPEED,CONFERENCE_3_Z11_COOLINGCOILDX,Inlet,1
 Non-Parent Node Connection,CONFERENCE_3_Z11_COOLC-HEATCNODE,COIL:COOLING:DX:SINGLESPEED,CONFERENCE_3_Z11_COOLINGCOILDX,Outlet,1
 Non-Parent Node Connection,MECHANICAL_4_Z12_SUPPLYINLET,COIL:COOLING:DX:SINGLESPEED,MECHANICAL_4_Z12_COOLINGCOILDX,Inlet,1
 Non-Parent Node Connection,MECHANICAL_4_Z12_COOLC-HEATCNODE,COIL:COOLING:DX:SINGLESPEED,MECHANICAL_4_Z12_COOLINGCOILDX,Outlet,1
 Non-Parent Node Connection,OFFICE_OPEN_4_Z13_SUPPLYINLET,COIL:COOLING:DX:SINGLESPEED,OFFICE_OPEN_4_Z13_COOLINGCOILDX,Inlet,1
 Non-Parent Node Connection,OFFICE_OPEN_4_Z13_COOLC-HEATCNODE,COIL:COOLING:DX:SINGLESPEED,OFFICE_OPEN_4_Z13_COOLINGCOILDX,Outlet,1
 Non-Parent Node Connection,STORAGE_4_Z14_SUPPLYINLET,COIL:COOLING:DX:SINGLESPEED,STORAGE_4_Z14_COOLINGCOILDX,Inlet,1
 Non-Parent Node Connection,STORAGE_4_Z14_COOLC-HEATCNODE,COIL:COOLING:DX:SINGLESPEED,STORAGE_4_Z14_COOLINGCOILDX,Outlet,1
