Program Version,EnergyPlus, Version 24.2.0-94a887817b, YMD=2025.11.02 19:20
! <Version>, Version ID
 Version, 24.2.0
! <Timesteps per Hour>, #TimeSteps, Minutes per TimeStep {minutes}
 Timesteps per Hour,  4, 15
! <System Convergence Limits>, Minimum System TimeStep {minutes}, Max HVAC Iterations, Minimum Plant Iterations, Maximum Plant Iterations
 System Convergence Limits, 1, 20, 2, 8
! <Simulation Control>, Do Zone Sizing, Do System Sizing, Do Plant Sizing, Do Design Days, Do Weather Simulation, Do HVAC Sizing Simulation
 Simulation Control, No, No, No, No, Yes, No
! <Performance Precision Tradeoffs>, Use Coil Direct Simulation, Zone Radiant Exchange Algorithm, Override Mode, Number of Timestep In Hour, Force Euler Method, Minimum Number of Warmup Days, Force Suppress All Begin Environment Resets, Minimum System Timestep, MaxZoneTempDiff, MaxAllowedDelTemp
 Performance Precision Tradeoffs, No, ScriptF, Normal, 4, No, 1, No, 1.0, 0.300, 2.0000E-003
! <Output Reporting Tolerances>, Tolerance for Time Heating Setpoint Not Met, Tolerance for Zone Cooling Setpoint Not Met Time
 Output Reporting Tolerances, 0.200, 0.200, 
! <Site:GroundTemperature:BuildingSurface>,Jan{C},Feb{C},Mar{C},Apr{C},May{C},Jun{C},Jul{C},Aug{C},Sep{C},Oct{C},Nov{C},Dec{C}
 Site:GroundTemperature:BuildingSurface,  13.00,  12.00,  11.00,  10.00,  11.00,  13.00,  15.00,  16.00,  16.00,  15.00,  14.00,  13.00
! <Site:GroundTemperature:FCfactorMethod>,Jan{C},Feb{C},Mar{C},Apr{C},May{C},Jun{C},Jul{C},Aug{C},Sep{C},Oct{C},Nov{C},Dec{C}
 Site:GroundTemperature:FCfactorMethod,  -1.89,  -3.06,  -0.99,   2.23,  10.68,  17.20,  21.60,  22.94,  20.66,  15.60,   8.83,   2.56
! <Site:GroundTemperature:Shallow>,Jan{C},Feb{C},Mar{C},Apr{C},May{C},Jun{C},Jul{C},Aug{C},Sep{C},Oct{C},Nov{C},Dec{C}
 Site:GroundTemperature:Shallow,  11.00,  10.00,   9.00,   8.00,   9.00,  11.00,  13.00,  14.00,  14.00,  13.00,  12.00,  11.00
! <Site:GroundTemperature:Deep>,Jan{C},Feb{C},Mar{C},Apr{C},May{C},Jun{C},Jul{C},Aug{C},Sep{C},Oct{C},Nov{C},Dec{C}
 Site:GroundTemperature:Deep,   9.00,   8.00,   7.00,   6.00,   7.00,   9.00,  11.00,  12.00,  12.00,  11.00,  10.00,   9.00
! <Site:GroundReflectance>,Jan{dimensionless},Feb{dimensionless},Mar{dimensionless},Apr{dimensionless},May{dimensionless},Jun{dimensionless},Jul{dimensionless},Aug{dimensionless},Sep{dimensionless},Oct{dimensionless},Nov{dimensionless},Dec{dimensionless}
 Site:GroundReflectance,  0.20,  0.20,  0.20,  0.20,  0.20,  0.20,  0.20,  0.20,  0.20,  0.20,  0.20,  0.20
! <Site:GroundReflectance:SnowModifier>, Normal, Daylighting {dimensionless}
 Site:GroundReflectance:SnowModifier,   1.000,   1.000
! <Site:GroundReflectance:Snow>,Jan{dimensionless},Feb{dimensionless},Mar{dimensionless},Apr{dimensionless},May{dimensionless},Jun{dimensionless},Jul{dimensionless},Aug{dimensionless},Sep{dimensionless},Oct{dimensionless},Nov{dimensionless},Dec{dimensionless}
 Site:GroundReflectance:Snow,  0.20,  0.20,  0.20,  0.20,  0.20,  0.20,  0.20,  0.20,  0.20,  0.20,  0.20,  0.20
! <Site:GroundReflectance:Snow:Daylighting>,Jan{dimensionless},Feb{dimensionless},Mar{dimensionless},Apr{dimensionless},May{dimensionless},Jun{dimensionless},Jul{dimensionless},Aug{dimensionless},Sep{dimensionless},Oct{dimensionless},Nov{dimensionless},Dec{dimensionless}
 Site:GroundReflectance:Snow:Daylighting,  0.20,  0.20,  0.20,  0.20,  0.20,  0.20,  0.20,  0.20,  0.20,  0.20,  0.20,  0.20
! <Environment:Weather Station>,Wind Sensor Height Above Ground {m},Wind Speed Profile Exponent {},Wind Speed Profile Boundary Layer Thickness {m},Air Temperature Sensor Height Above Ground {m},Wind Speed Modifier Coefficient-Internal,Temperature Modifier Coefficient-Internal
Environment:Weather Station,10.000,0.140,270.000,1.500,1.586,9.750E-003
! <Site:Location>, Location Name, Latitude {N+/S- Deg}, Longitude {E+/W- Deg},  Time Zone Number {GMT+/-}, Elevation {m},  Standard Pressure at Elevation {Pa}, Standard RhoAir at Elevation
Site:Location,Chicago Ohare Intl Ap IL USA TMY3 WMO#=725300,41.98,-87.92,-6.00,201.00,98934,1.1759
! <Site Water Mains Temperature Information>,Calculation Method{},Water Mains Temperature Schedule Name{},Annual Average Outdoor Air Temperature{C},Maximum Difference In Monthly Average Outdoor Air Temperatures{deltaC},Fixed Default Water Mains Temperature{C}
Site Water Mains Temperature Information,FixedDefault,NA,NA,NA,10.0
! <Building Information>, Building Name,North Axis {deg},Terrain,  Loads Convergence Tolerance Value,Temperature Convergence Tolerance Value,  Solar Distribution,Maximum Number of Warmup Days,Minimum Number of Warmup Days
 Building Information,Professional Building,0.000,Suburbs,4.00000E-002,0.20000,FullInteriorAndExterior,15,6
! <Inside Convection Algorithm>, Algorithm {Simple | TARP | CeilingDiffuser | AdaptiveConvectionAlgorithm}
Inside Convection Algorithm,TARP
! <Outside Convection Algorithm>, Algorithm {SimpleCombined | TARP | MoWitt | DOE-2 | AdaptiveConvectionAlgorithm}
Outside Convection Algorithm,DOE-2
! <Sky Radiance Distribution>, Value {Anisotropic}
Sky Radiance Distribution,Anisotropic
! <Zone Air Solution Algorithm>, Algorithm {ThirdOrderBackwardDifference | AnalyticalSolution | EulerMethod}, Space Heat Balance Sizing, Space Heat Balance Simulation
 Zone Air Solution Algorithm, ThirdOrderBackwardDifference, No, No
! <Zone Air Carbon Dioxide Balance Simulation>, Simulation {Yes/No}, Carbon Dioxide Concentration
 Zone Air Carbon Dioxide Balance Simulation, No,N/A
! <Zone Air Generic Contaminant Balance Simulation>, Simulation {Yes/No}, Generic Contaminant Concentration
 Zone Air Generic Contaminant Balance Simulation, No,N/A
! <Zone Air Mass Flow Balance Simulation>, Enforce Mass Balance, Adjust Zone Mixing and Return {AdjustMixingOnly | AdjustReturnOnly | AdjustMixingThenReturn | AdjustReturnThenMixing | None}, Adjust Zone Infiltration {AddInfiltration | AdjustInfiltration | None}, Infiltration Zones {MixingSourceZonesOnly | AllZones}
 Zone Air Mass Flow Balance Simulation, No,N/A,N/A,N/A
! <HVACSystemRootFindingAlgorithm>, Value {RegulaFalsi | Bisection | BisectionThenRegulaFalsi | RegulaFalsiThenBisection}
 HVACSystemRootFindingAlgorithm, RegulaFalsi
! <Environment:Site Atmospheric Variation>,Wind Speed Profile Exponent {},Wind Speed Profile Boundary Layer Thickness {m},Air Temperature Gradient Coefficient {K/m}
Environment:Site Atmospheric Variation,0.220,370.000,6.500000E-003
! <Shadowing/Sun Position Calculations Annual Simulations>, Shading Calculation Method, Shading Calculation Update Frequency Method, Shading Calculation Update Frequency {days}, Maximum Figures in Shadow Overlap Calculations {}, Polygon Clipping Algorithm, Pixel Counting Resolution, Sky Diffuse Modeling Algorithm, Output External Shading Calculation Results, Disable Self-Shading Within Shading Zone Groups, Disable Self-Shading From Shading Zone Groups to Other Zones
Shadowing/Sun Position Calculations Annual Simulations,PolygonClipping,Periodic,20,15000,SutherlandHodgman,512,SimpleSkyDiffuseModeling,No,No,No
! <Surface Geometry>,Starting Corner,Vertex Input Direction,Coordinate System,Daylight Reference Point Coordinate System,Rectangular (Simple) Surface Coordinate System
 Surface Geometry,UpperLeftCorner,Counterclockwise,RelativeCoordinateSystem,RelativeCoordinateSystem,RelativeToZoneOrigin
! <Surface Heat Transfer Algorithm>, Value {CTF - ConductionTransferFunction | EMPD - MoisturePenetrationDepthConductionTransferFunction | CondFD - ConductionFiniteDifference | HAMT - CombinedHeatAndMoistureFiniteElement} - Description,Inside Surface Max Temperature Limit{C}, Surface Convection Coefficient Lower Limit {W/m2-K}, Surface Convection Coefficient Upper Limit {W/m2-K}
Surface Heat Transfer Algorithm, CTF - ConductionTransferFunction,200,0.10,1000.0
! <Shading Summary>, Number of Fixed Detached Shades, Number of Building Detached Shades, Number of Attached Shades
 Shading Summary,0,0,0
! <Zone Summary>, Number of Zones, Number of Zone Surfaces, Number of SubSurfaces
 Zone Summary,14,154,56
! <Zone Information>,Zone Name,North Axis {deg},Origin X-Coordinate {m},Origin Y-Coordinate {m},Origin Z-Coordinate {m},Centroid X-Coordinate {m},Centroid Y-Coordinate {m},Centroid Z-Coordinate {m},Type,Zone Multiplier,Zone List Multiplier,Minimum X {m},Maximum X {m},Minimum Y {m},Maximum Y {m},Minimum Z {m},Maximum Z {m},Ceiling Height {m},Volume {m3},Zone Inside Convection Algorithm {Simple-Detailed-CeilingDiffuser-TrombeWall},Zone Outside Convection Algorithm {Simple-Detailed-Tarp-MoWitt-DOE-2-BLAST}, Floor Area {m2},Exterior Gross Wall Area {m2},Exterior Net Wall Area {m2},Exterior Window Area {m2}, Number of Surfaces, Number of SubSurfaces, Number of Shading SubSurfaces,  Part of Total Building Area
 Zone Information, CONFERENCE_0,0.0,0.00,0.00,0.00,56.95,14.91,1.50,1,1,1,53.33,60.57,8.41,21.41,0.00,3.00,3.00,275.91,TARP,DOE-2,91.97,120.16,84.00,36.16,6,4,0,Yes
 Zone Information, OFFICE_OPEN_0,0.0,0.00,0.00,0.00,29.58,2.11,1.50,1,1,1,24.83,34.33,-7.14,11.36,0.00,3.00,3.00,519.03,TARP,DOE-2,173.01,166.83,116.62,50.21,6,4,0,Yes
 Zone Information, OFFICE_PRIVATE_0,0.0,0.00,0.00,0.00,14.79,2.29,1.50,1,1,1,12.17,17.42,-2.06,6.63,0.00,3.00,3.00,132.59,TARP,DOE-2,44.20,82.39,57.59,24.80,6,4,0,Yes
 Zone Information, BREAK_ROOM_1,0.0,0.00,0.00,0.00,36.98,-14.20,4.50,1,1,1,34.27,39.69,-19.27,-9.14,3.00,6.00,3.00,160.13,TARP,DOE-2,53.38,92.10,64.38,27.72,6,4,0,Yes
 Zone Information, OFFICE_PRIVATE_1,0.0,0.00,0.00,0.00,40.15,-11.36,4.50,1,1,1,38.29,42.00,-14.25,-8.48,3.00,6.00,3.00,61.30,TARP,DOE-2,20.43,55.63,38.89,16.74,6,4,0,Yes
 Zone Information, STORAGE_1,0.0,0.00,0.00,0.00,59.62,32.45,4.50,1,1,1,57.17,62.07,27.95,36.95,3.00,6.00,3.00,127.96,TARP,DOE-2,42.65,82.14,57.42,24.72,6,4,0,Yes
 Zone Information, CONFERENCE_2,0.0,0.00,0.00,0.00,33.63,33.27,7.50,1,1,1,30.37,36.88,26.98,39.57,6.00,9.00,3.00,240.24,TARP,DOE-2,80.08,113.40,79.27,34.13,6,4,0,Yes
 Zone Information, BREAK_ROOM_2,0.0,0.00,0.00,0.00,32.70,21.66,7.50,1,1,1,29.91,35.49,17.52,25.79,6.00,9.00,3.00,134.39,TARP,DOE-2,44.80,81.92,57.26,24.65,6,4,0,Yes
 Zone Information, STORAGE_2,0.0,0.00,0.00,0.00,44.72,-18.21,7.50,1,1,1,42.47,46.97,-22.46,-13.96,6.00,9.00,3.00,110.94,TARP,DOE-2,36.98,76.81,53.69,23.12,6,4,0,Yes
 Zone Information, LOBBY_3,0.0,0.00,0.00,0.00,51.38,-4.43,10.50,1,1,1,46.23,56.52,-9.88,1.02,9.00,12.00,3.00,330.12,TARP,DOE-2,110.04,125.93,88.03,37.90,6,4,0,Yes
 Zone Information, CONFERENCE_3,0.0,0.00,0.00,0.00,42.65,30.95,10.50,1,1,1,38.94,46.36,25.24,36.66,9.00,12.00,3.00,248.81,TARP,DOE-2,82.94,111.88,78.21,33.67,6,4,0,Yes
 Zone Information, MECHANICAL_4,0.0,0.00,0.00,0.00,71.56,21.23,13.50,1,1,1,68.81,74.32,16.54,25.93,12.00,15.00,3.00,150.73,TARP,DOE-2,50.24,88.19,61.65,26.54,6,4,0,Yes
 Zone Information, OFFICE_OPEN_4,0.0,0.00,0.00,0.00,36.06,23.78,13.50,1,1,1,28.24,43.88,9.42,38.15,12.00,15.00,3.00,1335.45,TARP,DOE-2,445.15,265.09,185.31,79.78,6,4,0,Yes
 Zone Information, STORAGE_4,0.0,0.00,0.00,0.00,40.16,-3.06,13.50,1,1,1,38.33,42.00,-5.08,-1.03,12.00,15.00,3.00,42.37,TARP,DOE-2,14.12,45.15,31.56,13.59,6,4,0,Yes
! <Zone Internal Gains Nominal>,Zone Name, Floor Area {m2},# Occupants,Area per Occupant {m2/person},Occupant per Area {person/m2},Interior Lighting {W/m2},Electric Load {W/m2},Gas Load {W/m2},Other Load {W/m2},Hot Water Eq {W/m2},Steam Equipment {W/m2},Sum Loads per Area {W/m2},Outdoor Controlled Baseboard Heat
 Zone Internal Gains Nominal, CONFERENCE_0,91.97,18.0,5.109,0.196,10.800,8.100,0.000,0.000,0.000,0.000,18.900,No
 Zone Internal Gains Nominal, OFFICE_OPEN_0,173.01,8.0,21.626,4.624E-002,10.800,8.100,0.000,0.000,0.000,0.000,18.900,No
 Zone Internal Gains Nominal, OFFICE_PRIVATE_0,44.20,2.0,22.098,4.525E-002,10.800,8.100,0.000,0.000,0.000,0.000,18.900,No
 Zone Internal Gains Nominal, BREAK_ROOM_1,53.38,5.0,10.675,9.368E-002,8.100,15.000,0.000,0.000,0.000,0.000,23.100,No
 Zone Internal Gains Nominal, OFFICE_PRIVATE_1,20.43,1.0,20.432,4.894E-002,10.800,8.100,0.000,0.000,0.000,0.000,18.900,No
 Zone Internal Gains Nominal, STORAGE_1,42.65,1.0,42.652,2.345E-002,5.400,1.100,0.000,0.000,0.000,0.000,6.500,No
 Zone Internal Gains Nominal, CONFERENCE_2,80.08,16.0,5.005,0.200,10.800,8.100,0.000,0.000,0.000,0.000,18.900,No
 Zone Internal Gains Nominal, BREAK_ROOM_2,44.80,4.0,11.200,8.929E-002,8.100,15.000,0.000,0.000,0.000,0.000,23.100,No
 Zone Internal Gains Nominal, STORAGE_2,36.98,1.0,36.980,2.704E-002,5.400,1.100,0.000,0.000,0.000,0.000,6.500,No
 Zone Internal Gains Nominal, LOBBY_3,110.04,5.0,22.008,4.544E-002,12.900,3.200,0.000,0.000,0.000,0.000,16.100,No
 Zone Internal Gains Nominal, CONFERENCE_3,82.94,16.0,5.183,0.193,10.800,8.100,0.000,0.000,0.000,0.000,18.900,No
 Zone Internal Gains Nominal, MECHANICAL_4,50.24,1.0,50.243,1.990E-002,5.400,0.000,0.000,0.000,0.000,0.000,5.400,No
 Zone Internal Gains Nominal, OFFICE_OPEN_4,445.15,22.0,20.234,4.942E-002,10.800,8.100,0.000,0.000,0.000,0.000,18.900,No
 Zone Internal Gains Nominal, STORAGE_4,14.12,1.0,14.123,7.081E-002,5.400,1.100,0.000,0.000,0.000,0.000,6.500,No
! <People Internal Gains Nominal>,Name,Schedule Name,Zone Name,Zone Floor Area {m2},# Zone Occupants,Number of People {},People/Floor Area {person/m2},Floor Area per person {m2/person},Fraction Radiant,Fraction Convected,Sensible Fraction Calculation,Activity level,ASHRAE 55 Warnings,Carbon Dioxide Generation Rate,Minimum Number of People for All Day Types,Maximum Number of People for All Day Types,Minimum Number of People for Weekdays, Maximum Number of People for Weekdays, Minimum Number of People for Weekends/Holidays, Maximum Number of People for Weekends /Holidays,Minimum Number of People for Summer Design Days, Maximum Number of People for Summer Design Days,Minimum Number of People for Winter Design Days, Maximum Number of People for Winter Design Days
 People Internal Gains Nominal, CONFERENCE_0_PEOPLE,CONFERENCE_OCCUPANCY,CONFERENCE_0,91.97,18.0,18.0,0.196,5.109,0.300,0.700,0.100,CONFERENCE_ACTIVITY,No,3.8200E-008,0.0,18.0,0.0,18.0,0.0,1.8,0.0,0.0,0.0,0.0,
 People Internal Gains Nominal, OFFICE_OPEN_0_PEOPLE,OFFICE_OPEN_OCCUPANCY,OFFICE_OPEN_0,173.01,8.0,8.0,4.624E-002,21.626,0.300,0.700,0.100,OFFICE_OPEN_ACTIVITY,No,3.8200E-008,0.0,8.0,0.0,8.0,0.0,0.8,0.0,0.0,0.0,0.0,
 People Internal Gains Nominal, OFFICE_PRIVATE_0_PEOPLE,OFFICE_OPEN_OCCUPANCY,OFFICE_PRIVATE_0,44.20,2.0,2.0,4.525E-002,22.098,0.300,0.700,0.100,OFFICE_OPEN_ACTIVITY,No,3.8200E-008,0.0,2.0,0.0,2.0,0.0,0.2,0.0,0.0,0.0,0.0,
 People Internal Gains Nominal, BREAK_ROOM_1_PEOPLE,BREAK_ROOM_OCCUPANCY,BREAK_ROOM_1,53.38,5.0,5.0,9.368E-002,10.675,0.300,0.700,0.100,BREAK_ROOM_ACTIVITY,No,3.8200E-008,1.0,1.0,1.0,1.0,1.0,1.0,1.0,1.0,1.0,1.0,
 People Internal Gains Nominal, OFFICE_PRIVATE_1_PEOPLE,OFFICE_OPEN_OCCUPANCY,OFFICE_PRIVATE_1,20.43,1.0,1.0,4.894E-002,20.432,0.300,0.700,0.100,OFFICE_OPEN_ACTIVITY,No,3.8200E-008,0.0,1.0,0.0,1.0,0.0,0.1,0.0,0.0,0.0,0.0,
 People Internal Gains Nominal, STORAGE_1_PEOPLE,STORAGE_OCCUPANCY,STORAGE_1,42.65,1.0,1.0,2.345E-002,42.652,0.300,0.700,0.100,STORAGE_ACTIVITY,No,3.8200E-008,0.2,0.2,0.2,0.2,0.2,0.2,0.2,0.2,0.2,0.2,
 People Internal Gains Nominal, CONFERENCE_2_PEOPLE,CONFERENCE_OCCUPANCY,CONFERENCE_2,80.08,16.0,16.0,0.200,5.005,0.300,0.700,0.100,CONFERENCE_ACTIVITY,No,3.8200E-008,0.0,16.0,0.0,16.0,0.0,1.6,0.0,0.0,0.0,0.0,
 People Internal Gains Nominal, BREAK_ROOM_2_PEOPLE,BREAK_ROOM_OCCUPANCY,BREAK_ROOM_2,44.80,4.0,4.0,8.929E-002,11.200,0.300,0.700,0.100,BREAK_ROOM_ACTIVITY,No,3.8200E-008,0.8,0.8,0.8,0.8,0.8,0.8,0.8,0.8,0.8,0.8,
 People Internal Gains Nominal, STORAGE_2_PEOPLE,STORAGE_OCCUPANCY,STORAGE_2,36.98,1.0,1.0,2.704E-002,36.980,0.300,0.700,0.100,STORAGE_ACTIVITY,No,3.8200E-008,0.2,0.2,0.2,0.2,0.2,0.2,0.2,0.2,0.2,0.2,
 People Internal Gains Nominal, LOBBY_3_PEOPLE,LOBBY_OCCUPANCY,LOBBY_3,110.04,5.0,5.0,4.544E-002,22.008,0.300,0.700,0.100,LOBBY_ACTIVITY,No,3.8200E-008,1.0,1.0,1.0,1.0,1.0,1.0,1.0,1.0,1.0,1.0,
 People Internal Gains Nominal, CONFERENCE_3_PEOPLE,CONFERENCE_OCCUPANCY,CONFERENCE_3,82.94,16.0,16.0,0.193,5.183,0.300,0.700,0.100,CONFERENCE_ACTIVITY,No,3.8200E-008,0.0,16.0,0.0,16.0,0.0,1.6,0.0,0.0,0.0,0.0,
 People Internal Gains Nominal, MECHANICAL_4_PEOPLE,MECHANICAL_OCCUPANCY,MECHANICAL_4,50.24,1.0,1.0,1.990E-002,50.243,0.300,0.700,0.100,MECHANICAL_ACTIVITY,No,3.8200E-008,0.2,0.2,0.2,0.2,0.2,0.2,0.2,0.2,0.2,0.2,
 People Internal Gains Nominal, OFFICE_OPEN_4_PEOPLE,OFFICE_OPEN_OCCUPANCY,OFFICE_OPEN_4,445.15,22.0,22.0,4.942E-002,20.234,0.300,0.700,0.100,OFFICE_OPEN_ACTIVITY,No,3.8200E-008,0.0,22.0,0.0,22.0,0.0,2.2,0.0,0.0,0.0,0.0,
 People Internal Gains Nominal, STORAGE_4_PEOPLE,STORAGE_OCCUPANCY,STORAGE_4,14.12,1.0,1.0,7.081E-002,14.123,0.300,0.700,0.100,STORAGE_ACTIVITY,No,3.8200E-008,0.2,0.2,0.2,0.2,0.2,0.2,0.2,0.2,0.2,0.2,
! <Lights Internal Gains Nominal>,Name,Schedule Name,Zone Name,Zone Floor Area {m2},# Zone Occupants,Lighting Level {W},Lights/Floor Area {W/m2},Lights per person {W/person},Fraction Return Air,Fraction Radiant,Fraction Short Wave,Fraction Convected,Fraction Replaceable,End-Use, Minimum Lighting Level for All Day Types {W},Maximum Lighting Level for All Day Types {W},Minimum Lighting Level for Weekdays {W}, Maximum Lighting Level for Weekdays {W},Minimum Lighting Level for Weekends/Holidays {W}, Maximum Lighting Level for Weekends /Holidays {W},Minimum Lighting Level for Summer Design Days {W}, Maximum Lighting Level for Summer Design Days {W},Minimum Lighting Level for Winter Design Days {W}, Maximum Lighting Level for Winter Design Days {W}
 Lights Internal Gains Nominal, CONFERENCE_0_LIGHTS,CONFERENCE_LIGHTING,CONFERENCE_0,91.97,18.0,993.264,10.800,55.181,0.000,0.300,0.200,0.500,1.000,General,0.000,993.264,99.326,993.3,0.000,198.653,0.000,0.000,0.000,0.000
 Lights Internal Gains Nominal, OFFICE_OPEN_0_LIGHTS,OFFICE_OPEN_LIGHTING,OFFICE_OPEN_0,173.01,8.0,1868.493,10.800,233.562,0.000,0.300,0.200,0.500,1.000,General,0.000,1868.493,186.849,1868.5,0.000,373.699,0.000,0.000,0.000,0.000
 Lights Internal Gains Nominal, OFFICE_PRIVATE_0_LIGHTS,OFFICE_OPEN_LIGHTING,OFFICE_PRIVATE_0,44.20,2.0,477.322,10.800,238.661,0.000,0.300,0.200,0.500,1.000,General,0.000,477.322,47.732,477.3,0.000,95.464,0.000,0.000,0.000,0.000
 Lights Internal Gains Nominal, BREAK_ROOM_1_LIGHTS,BREAK_ROOM_LIGHTING,BREAK_ROOM_1,53.38,5.0,432.343,8.100,86.469,0.000,0.300,0.200,0.500,1.000,General,0.000,432.343,43.234,432.3,0.000,86.469,0.000,0.000,0.000,0.000
 Lights Internal Gains Nominal, OFFICE_PRIVATE_1_LIGHTS,OFFICE_OPEN_LIGHTING,OFFICE_PRIVATE_1,20.43,1.0,220.662,10.800,220.662,0.000,0.300,0.200,0.500,1.000,General,0.000,220.662,22.066,220.7,0.000,44.132,0.000,0.000,0.000,0.000
 Lights Internal Gains Nominal, STORAGE_1_LIGHTS,STORAGE_LIGHTING,STORAGE_1,42.65,1.0,230.322,5.400,230.322,0.000,0.300,0.200,0.500,1.000,General,0.000,230.322,23.032,230.3,0.000,46.064,0.000,0.000,0.000,0.000
 Lights Internal Gains Nominal, CONFERENCE_2_LIGHTS,CONFERENCE_LIGHTING,CONFERENCE_2,80.08,16.0,864.882,10.800,54.055,0.000,0.300,0.200,0.500,1.000,General,0.000,864.882,86.488,864.9,0.000,172.976,0.000,0.000,0.000,0.000
 Lights Internal Gains Nominal, BREAK_ROOM_2_LIGHTS,BREAK_ROOM_LIGHTING,BREAK_ROOM_2,44.80,4.0,362.866,8.100,90.716,0.000,0.300,0.200,0.500,1.000,General,0.000,362.866,36.287,362.9,0.000,72.573,0.000,0.000,0.000,0.000
 Lights Internal Gains Nominal, STORAGE_2_LIGHTS,STORAGE_LIGHTING,STORAGE_2,36.98,1.0,199.693,5.400,199.693,0.000,0.300,0.200,0.500,1.000,General,0.000,199.693,19.969,199.7,0.000,39.939,0.000,0.000,0.000,0.000
 Lights Internal Gains Nominal, LOBBY_3_LIGHTS,LOBBY_LIGHTING,LOBBY_3,110.04,5.0,1419.511,12.900,283.902,0.000,0.300,0.200,0.500,1.000,General,0.000,1419.511,141.951,1419.5,0.000,283.902,0.000,0.000,0.000,0.000
 Lights Internal Gains Nominal, CONFERENCE_3_LIGHTS,CONFERENCE_LIGHTING,CONFERENCE_3,82.94,16.0,895.709,10.800,55.982,0.000,0.300,0.200,0.500,1.000,General,0.000,895.709,89.571,895.7,0.000,179.142,0.000,0.000,0.000,0.000
 Lights Internal Gains Nominal, MECHANICAL_4_LIGHTS,MECHANICAL_LIGHTING,MECHANICAL_4,50.24,1.0,271.313,5.400,271.313,0.000,0.300,0.200,0.500,1.000,General,0.000,271.313,27.131,271.3,0.000,54.263,0.000,0.000,0.000,0.000
 Lights Internal Gains Nominal, OFFICE_OPEN_4_LIGHTS,OFFICE_OPEN_LIGHTING,OFFICE_OPEN_4,445.15,22.0,4807.605,10.800,218.527,0.000,0.300,0.200,0.500,1.000,General,0.000,4807.605,480.760,4807.6,0.000,961.521,0.000,0.000,0.000,0.000
 Lights Internal Gains Nominal, STORAGE_4_LIGHTS,STORAGE_LIGHTING,STORAGE_4,14.12,1.0,76.265,5.400,76.265,0.000,0.300,0.200,0.500,1.000,General,0.000,76.265,7.626,76.3,0.000,15.253,0.000,0.000,0.000,0.000
! <ElectricEquipment Internal Gains Nominal>,Name,Schedule Name,Zone Name,Zone Floor Area {m2},# Zone Occupants,Equipment Level {W},Equipment/Floor Area {W/m2},Equipment per person {W/person},Fraction Latent,Fraction Radiant,Fraction Lost,Fraction Convected,End-Use SubCategory,Minimum Equipment Level for All Day Types {W},Maximum Equipment Level for All Day Types {W},Minimum Equipment Level for Weekdays {W}, Maximum Equipment Level for Weekdays {W},Minimum Equipment Level for Weekends/Holidays {W}, Maximum Equipment Level for Weekends /Holidays {W},Minimum Equipment Level for Summer Design Days {W}, Maximum Equipment Level for Summer Design Days {W},Minimum Equipment Level for Winter Design Days {W}, Maximum Equipment Level for Winter Design Days {W}
 ElectricEquipment Internal Gains Nominal, CONFERENCE_0_EQUIPMENT,CONFERENCE_EQUIPMENT,CONFERENCE_0,91.97,18.0,744.948,8.100,41.386,0.100,0.200,0.000,0.700,General,0.000,595.959,223.484,595.959,0.000,223.484,0.000,0.000,0.000,0.000
 ElectricEquipment Internal Gains Nominal, OFFICE_OPEN_0_EQUIPMENT,OFFICE_OPEN_EQUIPMENT,OFFICE_OPEN_0,173.01,8.0,1401.370,8.100,175.171,0.100,0.200,0.000,0.700,General,0.000,1121.096,420.411,1121.096,0.000,420.411,0.000,0.000,0.000,0.000
 ElectricEquipment Internal Gains Nominal, OFFICE_PRIVATE_0_EQUIPMENT,OFFICE_OPEN_EQUIPMENT,OFFICE_PRIVATE_0,44.20,2.0,357.991,8.100,178.996,0.100,0.200,0.000,0.700,General,0.000,286.393,107.397,286.393,0.000,107.397,0.000,0.000,0.000,0.000
 ElectricEquipment Internal Gains Nominal, BREAK_ROOM_1_EQUIPMENT,BREAK_ROOM_EQUIPMENT,BREAK_ROOM_1,53.38,5.0,800.636,15.000,160.127,0.100,0.200,0.000,0.700,General,0.000,640.509,240.191,640.509,0.000,240.191,0.000,0.000,0.000,0.000
 ElectricEquipment Internal Gains Nominal, OFFICE_PRIVATE_1_EQUIPMENT,OFFICE_OPEN_EQUIPMENT,OFFICE_PRIVATE_1,20.43,1.0,165.497,8.100,165.497,0.100,0.200,0.000,0.700,General,0.000,132.397,49.649,132.397,0.000,49.649,0.000,0.000,0.000,0.000
 ElectricEquipment Internal Gains Nominal, STORAGE_1_EQUIPMENT,STORAGE_EQUIPMENT,STORAGE_1,42.65,1.0,46.918,1.100,46.918,0.100,0.200,0.000,0.700,General,0.000,37.534,14.075,37.534,0.000,14.075,0.000,0.000,0.000,0.000
 ElectricEquipment Internal Gains Nominal, CONFERENCE_2_EQUIPMENT,CONFERENCE_EQUIPMENT,CONFERENCE_2,80.08,16.0,648.661,8.100,40.541,0.100,0.200,0.000,0.700,General,0.000,518.929,194.598,518.929,0.000,194.598,0.000,0.000,0.000,0.000
 ElectricEquipment Internal Gains Nominal, BREAK_ROOM_2_EQUIPMENT,BREAK_ROOM_EQUIPMENT,BREAK_ROOM_2,44.80,4.0,671.974,15.000,167.994,0.100,0.200,0.000,0.700,General,0.000,537.579,201.592,537.579,0.000,201.592,0.000,0.000,0.000,0.000
 ElectricEquipment Internal Gains Nominal, STORAGE_2_EQUIPMENT,STORAGE_EQUIPMENT,STORAGE_2,36.98,1.0,40.678,1.100,40.678,0.100,0.200,0.000,0.700,General,0.000,32.543,12.203,32.543,0.000,12.203,0.000,0.000,0.000,0.000
 ElectricEquipment Internal Gains Nominal, LOBBY_3_EQUIPMENT,LOBBY_EQUIPMENT,LOBBY_3,110.04,5.0,352.127,3.200,70.425,0.100,0.200,0.000,0.700,General,0.000,281.701,105.638,281.701,0.000,105.638,0.000,0.000,0.000,0.000
 ElectricEquipment Internal Gains Nominal, CONFERENCE_3_EQUIPMENT,CONFERENCE_EQUIPMENT,CONFERENCE_3,82.94,16.0,671.781,8.100,41.986,0.100,0.200,0.000,0.700,General,0.000,537.425,201.534,537.425,0.000,201.534,0.000,0.000,0.000,0.000
 ElectricEquipment Internal Gains Nominal, MECHANICAL_4_EQUIPMENT,MECHANICAL_EQUIPMENT,MECHANICAL_4,50.24,1.0,0.000,0.000,0.000,0.100,0.200,0.000,0.700,General,0.000,0.000,0.000,0.000,0.000,0.000,0.000,0.000,0.000,0.000
 ElectricEquipment Internal Gains Nominal, OFFICE_OPEN_4_EQUIPMENT,OFFICE_OPEN_EQUIPMENT,OFFICE_OPEN_4,445.15,22.0,3605.704,8.100,163.896,0.100,0.200,0.000,0.700,General,0.000,2884.563,1081.711,2884.563,0.000,1081.711,0.000,0.000,0.000,0.000
 ElectricEquipment Internal Gains Nominal, STORAGE_4_EQUIPMENT,STORAGE_EQUIPMENT,STORAGE_4,14.12,1.0,15.535,1.100,15.535,0.100,0.200,0.000,0.700,General,0.000,12.428,4.661,12.428,0.000,4.661,0.000,0.000,0.000,0.000
! <Enclosure/Window Adjacency Daylighting Counts>, Enclosure Name, Number of Exterior Windows, Number of Exterior Windows in Adjacent Enclosures
Enclosure/Window Adjacency Daylighting Counts, CONFERENCE_0,4,0
Enclosure/Window Adjacency Daylighting Counts, OFFICE_OPEN_0,4,0
Enclosure/Window Adjacency Daylighting Counts, OFFICE_PRIVATE_0,4,0
Enclosure/Window Adjacency Daylighting Counts, BREAK_ROOM_1,4,0
Enclosure/Window Adjacency Daylighting Counts, OFFICE_PRIVATE_1,4,0
Enclosure/Window Adjacency Daylighting Counts, CONFERENCE_2,4,0
Enclosure/Window Adjacency Daylighting Counts, BREAK_ROOM_2,4,0
Enclosure/Window Adjacency Daylighting Counts, LOBBY_3,4,0
Enclosure/Window Adjacency Daylighting Counts, CONFERENCE_3,4,0
Enclosure/Window Adjacency Daylighting Counts, OFFICE_OPEN_4,4,0
! <Enclosure/Window Adjacency Daylighting Matrix>, Enclosure Name, Number of Adjacent Enclosures with Windows,Adjacent Enclosure Names - 1st 100 (max)
Enclosure/Window Adjacency Daylighting Matrix, CONFERENCE_0,0
Enclosure/Window Adjacency Daylighting Matrix, OFFICE_OPEN_0,0
Enclosure/Window Adjacency Daylighting Matrix, OFFICE_PRIVATE_0,0
Enclosure/Window Adjacency Daylighting Matrix, BREAK_ROOM_1,0
Enclosure/Window Adjacency Daylighting Matrix, OFFICE_PRIVATE_1,0
Enclosure/Window Adjacency Daylighting Matrix, CONFERENCE_2,0
Enclosure/Window Adjacency Daylighting Matrix, BREAK_ROOM_2,0
Enclosure/Window Adjacency Daylighting Matrix, LOBBY_3,0
Enclosure/Window Adjacency Daylighting Matrix, CONFERENCE_3,0
Enclosure/Window Adjacency Daylighting Matrix, OFFICE_OPEN_4,0
! <ZoneInfiltration Airflow Stats Nominal>,Name,Schedule Name,Zone Name, Zone Floor Area {m2}, # Zone Occupants,Design Volume Flow Rate {m3/s},Volume Flow Rate/Floor Area {m3/s-m2},Volume Flow Rate/Exterior Surface Area {m3/s-m2},ACH - Air Changes per Hour,Equation A - Constant Term Coefficient {},Equation B - Temperature Term Coefficient {1/C},Equation C - Velocity Term Coefficient {s/m}, Equation D - Velocity Squared Term Coefficient {s2/m2}
 ZoneInfiltration Airflow Stats Nominal, CONFERENCE_0_INFILTRATION,CONFERENCE_0_INFILTRATION_SCHEDULE,CONFERENCE_0,91.97,18.0,0.000,0.000,0.000,0.000,0.000,0.000,0.000,0.000
 ZoneInfiltration Airflow Stats Nominal, OFFICE_OPEN_0_INFILTRATION,OFFICE_OPEN_0_INFILTRATION_SCHEDULE,OFFICE_OPEN_0,173.01,8.0,0.000,0.000,0.000,0.000,0.000,0.000,0.000,0.000
 ZoneInfiltration Airflow Stats Nominal, OFFICE_PRIVATE_0_INFILTRATION,OFFICE_PRIVATE_0_INFILTRATION_SCHEDULE,OFFICE_PRIVATE_0,44.20,2.0,0.000,0.000,0.000,0.000,0.000,0.000,0.000,0.000
 ZoneInfiltration Airflow Stats Nominal, BREAK_ROOM_1_INFILTRATION,BREAK_ROOM_1_INFILTRATION_SCHEDULE,BREAK_ROOM_1,53.38,5.0,0.000,0.000,0.000,0.000,0.000,0.000,0.000,0.000
 ZoneInfiltration Airflow Stats Nominal, OFFICE_PRIVATE_1_INFILTRATION,OFFICE_PRIVATE_1_INFILTRATION_SCHEDULE,OFFICE_PRIVATE_1,20.43,1.0,0.000,0.000,0.000,0.000,0.000,0.000,0.000,0.000
 ZoneInfiltration Airflow Stats Nominal, STORAGE_1_INFILTRATION,STORAGE_1_INFILTRATION_SCHEDULE,STORAGE_1,42.65,1.0,0.000,0.000,0.000,0.000,0.000,0.000,0.000,0.000
 ZoneInfiltration Airflow Stats Nominal, CONFERENCE_2_INFILTRATION,CONFERENCE_2_INFILTRATION_SCHEDULE,CONFERENCE_2,80.08,16.0,0.000,0.000,0.000,0.000,0.000,0.000,0.000,0.000
 ZoneInfiltration Airflow Stats Nominal, BREAK_ROOM_2_INFILTRATION,BREAK_ROOM_2_INFILTRATION_SCHEDULE,BREAK_ROOM_2,44.80,4.0,0.000,0.000,0.000,0.000,0.000,0.000,0.000,0.000
 ZoneInfiltration Airflow Stats Nominal, STORAGE_2_INFILTRATION,STORAGE_2_INFILTRATION_SCHEDULE,STORAGE_2,36.98,1.0,0.000,0.000,0.000,0.000,0.000,0.000,0.000,0.000
 ZoneInfiltration Airflow Stats Nominal, LOBBY_3_INFILTRATION,LOBBY_3_INFILTRATION_SCHEDULE,LOBBY_3,110.04,5.0,0.000,0.000,0.000,0.000,0.000,0.000,0.000,0.000
 ZoneInfiltration Airflow Stats Nominal, CONFERENCE_3_INFILTRATION,CONFERENCE_3_INFILTRATION_SCHEDULE,CONFERENCE_3,82.94,16.0,0.000,0.000,0.000,0.000,0.000,0.000,0.000,0.000
 ZoneInfiltration Airflow Stats Nominal, MECHANICAL_4_INFILTRATION,MECHANICAL_4_INFILTRATION_SCHEDULE,MECHANICAL_4,50.24,1.0,0.000,0.000,0.000,0.000,0.000,0.000,0.000,0.000
 ZoneInfiltration Airflow Stats Nominal, OFFICE_OPEN_4_INFILTRATION,OFFICE_OPEN_4_INFILTRATION_SCHEDULE,OFFICE_OPEN_4,445.15,22.0,0.000,0.000,0.000,0.000,0.000,0.000,0.000,0.000
 ZoneInfiltration Airflow Stats Nominal, STORAGE_4_INFILTRATION,STORAGE_4_INFILTRATION_SCHEDULE,STORAGE_4,14.12,1.0,0.000,0.000,0.000,0.000,0.000,0.000,0.000,0.000
! <AirFlow Model>, Simple
 AirFlow Model, Simple
! <RoomAir Model>, Zone Name, Mixing/Mundt/UCSDDV/UCSDCV/UCSDUFI/UCSDUFE/User Defined
RoomAir Model,CONFERENCE_0,Mixing/Well-Stirred
RoomAir Model,OFFICE_OPEN_0,Mixing/Well-Stirred
RoomAir Model,OFFICE_PRIVATE_0,Mixing/Well-Stirred
RoomAir Model,BREAK_ROOM_1,Mixing/Well-Stirred
RoomAir Model,OFFICE_PRIVATE_1,Mixing/Well-Stirred
RoomAir Model,STORAGE_1,Mixing/Well-Stirred
RoomAir Model,CONFERENCE_2,Mixing/Well-Stirred
RoomAir Model,BREAK_ROOM_2,Mixing/Well-Stirred
RoomAir Model,STORAGE_2,Mixing/Well-Stirred
RoomAir Model,LOBBY_3,Mixing/Well-Stirred
RoomAir Model,CONFERENCE_3,Mixing/Well-Stirred
RoomAir Model,MECHANICAL_4,Mixing/Well-Stirred
RoomAir Model,OFFICE_OPEN_4,Mixing/Well-Stirred
RoomAir Model,STORAGE_4,Mixing/Well-Stirred
! <AirflowNetwork Model:Control>, No Multizone or Distribution/Multizone with Distribution/Multizone without Distribution/Multizone with Distribution only during Fan Operation
AirflowNetwork Model:Control,NoMultizoneOrDistribution
! <Zone Volume Capacitance Multiplier>, Sensible Heat Capacity Multiplier, Moisture Capacity Multiplier, Carbon Dioxide Capacity Multiplier, Generic Contaminant Capacity Multiplier
Zone Volume Capacitance Multiplier,   1.000 ,   1.000,   1.000,   1.000
! <Component Sizing Information>, Component Type, Component Name, Input Field Description, Value
 Component Sizing Information, AirTerminal:SingleDuct:VAV:Reheat, CONFERENCE_0_Z1_VAVTERMINAL, User-Specified Maximum Air Flow Rate [m3/s], 0.45984
 Component Sizing Information, AirTerminal:SingleDuct:VAV:Reheat, CONFERENCE_0_Z1_VAVTERMINAL, Design Size Constant Minimum Air Flow Fraction, 0.20000
 Component Sizing Information, AirTerminal:SingleDuct:VAV:Reheat, CONFERENCE_0_Z1_VAVTERMINAL, User-Specified Constant Minimum Air Flow Fraction, 0.20000
 Component Sizing Information, AirTerminal:SingleDuct:VAV:Reheat, CONFERENCE_0_Z1_VAVTERMINAL, Design Size Minimum Air Flow Rate [m3/s], 9.19682E-002
 Component Sizing Information, AirTerminal:SingleDuct:VAV:Reheat, CONFERENCE_0_Z1_VAVTERMINAL, Design Size Maximum Flow per Zone Floor Area during Reheat [m3/s-m2], 9.99992E-004
 Component Sizing Information, AirTerminal:SingleDuct:VAV:Reheat, CONFERENCE_0_Z1_VAVTERMINAL, Design Size Maximum Flow Fraction during Reheat [], 0.20000
 Component Sizing Information, AirTerminal:SingleDuct:VAV:Reheat, CONFERENCE_0_Z1_VAVTERMINAL, User-Specified Maximum Reheat Water Flow Rate [m3/s], 7.35746
 Component Sizing Information, Coil:Heating:Electric, CONFERENCE_0_Z1_REHEATCOIL, User-Specified Nominal Capacity [W], 2207.23655
 Component Sizing Information, AirTerminal:SingleDuct:VAV:Reheat, OFFICE_OPEN_0_Z2_VAVTERMINAL, User-Specified Maximum Air Flow Rate [m3/s], 0.86504
 Component Sizing Information, AirTerminal:SingleDuct:VAV:Reheat, OFFICE_OPEN_0_Z2_VAVTERMINAL, Design Size Constant Minimum Air Flow Fraction, 0.20000
 Component Sizing Information, AirTerminal:SingleDuct:VAV:Reheat, OFFICE_OPEN_0_Z2_VAVTERMINAL, User-Specified Constant Minimum Air Flow Fraction, 0.20000
 Component Sizing Information, AirTerminal:SingleDuct:VAV:Reheat, OFFICE_OPEN_0_Z2_VAVTERMINAL, Design Size Minimum Air Flow Rate [m3/s], 0.17301
 Component Sizing Information, AirTerminal:SingleDuct:VAV:Reheat, OFFICE_OPEN_0_Z2_VAVTERMINAL, Design Size Maximum Flow per Zone Floor Area during Reheat [m3/s-m2], 9.99997E-004
 Component Sizing Information, AirTerminal:SingleDuct:VAV:Reheat, OFFICE_OPEN_0_Z2_VAVTERMINAL, Design Size Maximum Flow Fraction during Reheat [], 0.20000
 Component Sizing Information, AirTerminal:SingleDuct:VAV:Reheat, OFFICE_OPEN_0_Z2_VAVTERMINAL, User-Specified Maximum Reheat Water Flow Rate [m3/s], 13.84064
 Component Sizing Information, Coil:Heating:Electric, OFFICE_OPEN_0_Z2_REHEATCOIL, User-Specified Nominal Capacity [W], 4152.19225
 Component Sizing Information, AirTerminal:SingleDuct:VAV:Reheat, OFFICE_PRIVATE_0_Z3_VAVTERMINAL, User-Specified Maximum Air Flow Rate [m3/s], 0.22099
 Component Sizing Information, AirTerminal:SingleDuct:VAV:Reheat, OFFICE_PRIVATE_0_Z3_VAVTERMINAL, Design Size Constant Minimum Air Flow Fraction, 0.20000
 Component Sizing Information, AirTerminal:SingleDuct:VAV:Reheat, OFFICE_PRIVATE_0_Z3_VAVTERMINAL, User-Specified Constant Minimum Air Flow Fraction, 0.20000
 Component Sizing Information, AirTerminal:SingleDuct:VAV:Reheat, OFFICE_PRIVATE_0_Z3_VAVTERMINAL, Design Size Minimum Air Flow Rate [m3/s], 4.41970E-002
 Component Sizing Information, AirTerminal:SingleDuct:VAV:Reheat, OFFICE_PRIVATE_0_Z3_VAVTERMINAL, Design Size Maximum Flow per Zone Floor Area during Reheat [m3/s-m2], 1.00001E-003
 Component Sizing Information, AirTerminal:SingleDuct:VAV:Reheat, OFFICE_PRIVATE_0_Z3_VAVTERMINAL, Design Size Maximum Flow Fraction during Reheat [], 0.20000
 Component Sizing Information, AirTerminal:SingleDuct:VAV:Reheat, OFFICE_PRIVATE_0_Z3_VAVTERMINAL, User-Specified Maximum Reheat Water Flow Rate [m3/s], 3.53576
 Component Sizing Information, Coil:Heating:Electric, OFFICE_PRIVATE_0_Z3_REHEATCOIL, User-Specified Nominal Capacity [W], 1060.72847
 Component Sizing Information, AirTerminal:SingleDuct:VAV:Reheat, BREAK_ROOM_1_Z4_VAVTERMINAL, User-Specified Maximum Air Flow Rate [m3/s], 0.26687
 Component Sizing Information, AirTerminal:SingleDuct:VAV:Reheat, BREAK_ROOM_1_Z4_VAVTERMINAL, Design Size Constant Minimum Air Flow Fraction, 0.20000
 Component Sizing Information, AirTerminal:SingleDuct:VAV:Reheat, BREAK_ROOM_1_Z4_VAVTERMINAL, User-Specified Constant Minimum Air Flow Fraction, 0.20000
 Component Sizing Information, AirTerminal:SingleDuct:VAV:Reheat, BREAK_ROOM_1_Z4_VAVTERMINAL, Design Size Minimum Air Flow Rate [m3/s], 5.33750E-002
 Component Sizing Information, AirTerminal:SingleDuct:VAV:Reheat, BREAK_ROOM_1_Z4_VAVTERMINAL, Design Size Maximum Flow per Zone Floor Area during Reheat [m3/s-m2], 9.99985E-004
 Component Sizing Information, AirTerminal:SingleDuct:VAV:Reheat, BREAK_ROOM_1_Z4_VAVTERMINAL, Design Size Maximum Flow Fraction during Reheat [], 0.20000
 Component Sizing Information, AirTerminal:SingleDuct:VAV:Reheat, BREAK_ROOM_1_Z4_VAVTERMINAL, User-Specified Maximum Reheat Water Flow Rate [m3/s], 4.27000
 Component Sizing Information, Coil:Heating:Electric, BREAK_ROOM_1_Z4_REHEATCOIL, User-Specified Nominal Capacity [W], 1280.99882
 Component Sizing Information, AirTerminal:SingleDuct:VAV:Reheat, OFFICE_PRIVATE_1_Z5_VAVTERMINAL, User-Specified Maximum Air Flow Rate [m3/s], 0.10216
 Component Sizing Information, AirTerminal:SingleDuct:VAV:Reheat, OFFICE_PRIVATE_1_Z5_VAVTERMINAL, Design Size Constant Minimum Air Flow Fraction, 0.20000
 Component Sizing Information, AirTerminal:SingleDuct:VAV:Reheat, OFFICE_PRIVATE_1_Z5_VAVTERMINAL, User-Specified Constant Minimum Air Flow Fraction, 0.20000
 Component Sizing Information, AirTerminal:SingleDuct:VAV:Reheat, OFFICE_PRIVATE_1_Z5_VAVTERMINAL, Design Size Minimum Air Flow Rate [m3/s], 2.04316E-002
 Component Sizing Information, AirTerminal:SingleDuct:VAV:Reheat, OFFICE_PRIVATE_1_Z5_VAVTERMINAL, Design Size Maximum Flow per Zone Floor Area during Reheat [m3/s-m2], 9.99995E-004
 Component Sizing Information, AirTerminal:SingleDuct:VAV:Reheat, OFFICE_PRIVATE_1_Z5_VAVTERMINAL, Design Size Maximum Flow Fraction during Reheat [], 0.20000
 Component Sizing Information, AirTerminal:SingleDuct:VAV:Reheat, OFFICE_PRIVATE_1_Z5_VAVTERMINAL, User-Specified Maximum Reheat Water Flow Rate [m3/s], 1.63453
 Component Sizing Information, Coil:Heating:Electric, OFFICE_PRIVATE_1_Z5_REHEATCOIL, User-Specified Nominal Capacity [W], 490.35822
 Component Sizing Information, AirTerminal:SingleDuct:VAV:Reheat, STORAGE_1_Z6_VAVTERMINAL, User-Specified Maximum Air Flow Rate [m3/s], 0.21326
 Component Sizing Information, AirTerminal:SingleDuct:VAV:Reheat, STORAGE_1_Z6_VAVTERMINAL, Design Size Constant Minimum Air Flow Fraction, 0.20000
 Component Sizing Information, AirTerminal:SingleDuct:VAV:Reheat, STORAGE_1_Z6_VAVTERMINAL, User-Specified Constant Minimum Air Flow Fraction, 0.20000
 Component Sizing Information, AirTerminal:SingleDuct:VAV:Reheat, STORAGE_1_Z6_VAVTERMINAL, Design Size Minimum Air Flow Rate [m3/s], 4.26526E-002
 Component Sizing Information, AirTerminal:SingleDuct:VAV:Reheat, STORAGE_1_Z6_VAVTERMINAL, Design Size Maximum Flow per Zone Floor Area during Reheat [m3/s-m2], 1.00001E-003
 Component Sizing Information, AirTerminal:SingleDuct:VAV:Reheat, STORAGE_1_Z6_VAVTERMINAL, Design Size Maximum Flow Fraction during Reheat [], 0.20000
 Component Sizing Information, AirTerminal:SingleDuct:VAV:Reheat, STORAGE_1_Z6_VAVTERMINAL, User-Specified Maximum Reheat Water Flow Rate [m3/s], 3.41221
 Component Sizing Information, Coil:Heating:Electric, STORAGE_1_Z6_REHEATCOIL, User-Specified Nominal Capacity [W], 1023.66173
 Component Sizing Information, AirTerminal:SingleDuct:VAV:Reheat, CONFERENCE_2_Z7_VAVTERMINAL, User-Specified Maximum Air Flow Rate [m3/s], 0.40041
 Component Sizing Information, AirTerminal:SingleDuct:VAV:Reheat, CONFERENCE_2_Z7_VAVTERMINAL, Design Size Constant Minimum Air Flow Fraction, 0.20000
 Component Sizing Information, AirTerminal:SingleDuct:VAV:Reheat, CONFERENCE_2_Z7_VAVTERMINAL, User-Specified Constant Minimum Air Flow Fraction, 0.20000
 Component Sizing Information, AirTerminal:SingleDuct:VAV:Reheat, CONFERENCE_2_Z7_VAVTERMINAL, Design Size Minimum Air Flow Rate [m3/s], 8.00817E-002
 Component Sizing Information, AirTerminal:SingleDuct:VAV:Reheat, CONFERENCE_2_Z7_VAVTERMINAL, Design Size Maximum Flow per Zone Floor Area during Reheat [m3/s-m2], 1.00000E-003
 Component Sizing Information, AirTerminal:SingleDuct:VAV:Reheat, CONFERENCE_2_Z7_VAVTERMINAL, Design Size Maximum Flow Fraction during Reheat [], 0.20000
 Component Sizing Information, AirTerminal:SingleDuct:VAV:Reheat, CONFERENCE_2_Z7_VAVTERMINAL, User-Specified Maximum Reheat Water Flow Rate [m3/s], 6.40654
 Component Sizing Information, Coil:Heating:Electric, CONFERENCE_2_Z7_REHEATCOIL, User-Specified Nominal Capacity [W], 1921.96149
 Component Sizing Information, AirTerminal:SingleDuct:VAV:Reheat, BREAK_ROOM_2_Z8_VAVTERMINAL, User-Specified Maximum Air Flow Rate [m3/s], 0.22399
 Component Sizing Information, AirTerminal:SingleDuct:VAV:Reheat, BREAK_ROOM_2_Z8_VAVTERMINAL, Design Size Constant Minimum Air Flow Fraction, 0.20000
 Component Sizing Information, AirTerminal:SingleDuct:VAV:Reheat, BREAK_ROOM_2_Z8_VAVTERMINAL, User-Specified Constant Minimum Air Flow Fraction, 0.20000
 Component Sizing Information, AirTerminal:SingleDuct:VAV:Reheat, BREAK_ROOM_2_Z8_VAVTERMINAL, Design Size Minimum Air Flow Rate [m3/s], 4.47984E-002
 Component Sizing Information, AirTerminal:SingleDuct:VAV:Reheat, BREAK_ROOM_2_Z8_VAVTERMINAL, Design Size Maximum Flow per Zone Floor Area during Reheat [m3/s-m2], 1.00000E-003
 Component Sizing Information, AirTerminal:SingleDuct:VAV:Reheat, BREAK_ROOM_2_Z8_VAVTERMINAL, Design Size Maximum Flow Fraction during Reheat [], 0.20000
 Component Sizing Information, AirTerminal:SingleDuct:VAV:Reheat, BREAK_ROOM_2_Z8_VAVTERMINAL, User-Specified Maximum Reheat Water Flow Rate [m3/s], 3.58387
 Component Sizing Information, Coil:Heating:Electric, BREAK_ROOM_2_Z8_REHEATCOIL, User-Specified Nominal Capacity [W], 1075.16237
 Component Sizing Information, AirTerminal:SingleDuct:VAV:Reheat, STORAGE_2_Z9_VAVTERMINAL, User-Specified Maximum Air Flow Rate [m3/s], 0.18490
 Component Sizing Information, AirTerminal:SingleDuct:VAV:Reheat, STORAGE_2_Z9_VAVTERMINAL, Design Size Constant Minimum Air Flow Fraction, 0.20000
 Component Sizing Information, AirTerminal:SingleDuct:VAV:Reheat, STORAGE_2_Z9_VAVTERMINAL, User-Specified Constant Minimum Air Flow Fraction, 0.20000
 Component Sizing Information, AirTerminal:SingleDuct:VAV:Reheat, STORAGE_2_Z9_VAVTERMINAL, Design Size Minimum Air Flow Rate [m3/s], 3.69798E-002
 Component Sizing Information, AirTerminal:SingleDuct:VAV:Reheat, STORAGE_2_Z9_VAVTERMINAL, Design Size Maximum Flow per Zone Floor Area during Reheat [m3/s-m2], 9.99991E-004
 Component Sizing Information, AirTerminal:SingleDuct:VAV:Reheat, STORAGE_2_Z9_VAVTERMINAL, Design Size Maximum Flow Fraction during Reheat [], 0.20000
 Component Sizing Information, AirTerminal:SingleDuct:VAV:Reheat, STORAGE_2_Z9_VAVTERMINAL, User-Specified Maximum Reheat Water Flow Rate [m3/s], 2.95839
 Component Sizing Information, Coil:Heating:Electric, STORAGE_2_Z9_REHEATCOIL, User-Specified Nominal Capacity [W], 887.51558
 Component Sizing Information, AirTerminal:SingleDuct:VAV:Reheat, LOBBY_3_Z10_VAVTERMINAL, User-Specified Maximum Air Flow Rate [m3/s], 0.55020
 Component Sizing Information, AirTerminal:SingleDuct:VAV:Reheat, LOBBY_3_Z10_VAVTERMINAL, Design Size Constant Minimum Air Flow Fraction, 0.20000
 Component Sizing Information, AirTerminal:SingleDuct:VAV:Reheat, LOBBY_3_Z10_VAVTERMINAL, User-Specified Constant Minimum Air Flow Fraction, 0.20000
 Component Sizing Information, AirTerminal:SingleDuct:VAV:Reheat, LOBBY_3_Z10_VAVTERMINAL, Design Size Minimum Air Flow Rate [m3/s], 0.11004
 Component Sizing Information, AirTerminal:SingleDuct:VAV:Reheat, LOBBY_3_Z10_VAVTERMINAL, Design Size Maximum Flow per Zone Floor Area during Reheat [m3/s-m2], 1.00001E-003
 Component Sizing Information, AirTerminal:SingleDuct:VAV:Reheat, LOBBY_3_Z10_VAVTERMINAL, Design Size Maximum Flow Fraction during Reheat [], 0.20000
 Component Sizing Information, AirTerminal:SingleDuct:VAV:Reheat, LOBBY_3_Z10_VAVTERMINAL, User-Specified Maximum Reheat Water Flow Rate [m3/s], 8.80321
 Component Sizing Information, Coil:Heating:Electric, LOBBY_3_Z10_REHEATCOIL, User-Specified Nominal Capacity [W], 2640.96407
 Component Sizing Information, AirTerminal:SingleDuct:VAV:Reheat, CONFERENCE_3_Z11_VAVTERMINAL, User-Specified Maximum Air Flow Rate [m3/s], 0.41468
 Component Sizing Information, AirTerminal:SingleDuct:VAV:Reheat, CONFERENCE_3_Z11_VAVTERMINAL, Design Size Constant Minimum Air Flow Fraction, 0.20000
 Component Sizing Information, AirTerminal:SingleDuct:VAV:Reheat, CONFERENCE_3_Z11_VAVTERMINAL, User-Specified Constant Minimum Air Flow Fraction, 0.20000
 Component Sizing Information, AirTerminal:SingleDuct:VAV:Reheat, CONFERENCE_3_Z11_VAVTERMINAL, Design Size Minimum Air Flow Rate [m3/s], 8.29360E-002
 Component Sizing Information, AirTerminal:SingleDuct:VAV:Reheat, CONFERENCE_3_Z11_VAVTERMINAL, Design Size Maximum Flow per Zone Floor Area during Reheat [m3/s-m2], 1.00000E-003
 Component Sizing Information, AirTerminal:SingleDuct:VAV:Reheat, CONFERENCE_3_Z11_VAVTERMINAL, Design Size Maximum Flow Fraction during Reheat [], 0.20000
 Component Sizing Information, AirTerminal:SingleDuct:VAV:Reheat, CONFERENCE_3_Z11_VAVTERMINAL, User-Specified Maximum Reheat Water Flow Rate [m3/s], 6.63488
 Component Sizing Information, Coil:Heating:Electric, CONFERENCE_3_Z11_REHEATCOIL, User-Specified Nominal Capacity [W], 1990.46383
 Component Sizing Information, AirTerminal:SingleDuct:VAV:Reheat, MECHANICAL_4_Z12_VAVTERMINAL, User-Specified Maximum Air Flow Rate [m3/s], 0.25121
 Component Sizing Information, AirTerminal:SingleDuct:VAV:Reheat, MECHANICAL_4_Z12_VAVTERMINAL, Design Size Constant Minimum Air Flow Fraction, 0.20000
 Component Sizing Information, AirTerminal:SingleDuct:VAV:Reheat, MECHANICAL_4_Z12_VAVTERMINAL, User-Specified Constant Minimum Air Flow Fraction, 0.20000
 Component Sizing Information, AirTerminal:SingleDuct:VAV:Reheat, MECHANICAL_4_Z12_VAVTERMINAL, Design Size Minimum Air Flow Rate [m3/s], 5.02427E-002
 Component Sizing Information, AirTerminal:SingleDuct:VAV:Reheat, MECHANICAL_4_Z12_VAVTERMINAL, Design Size Maximum Flow per Zone Floor Area during Reheat [m3/s-m2], 9.99992E-004
 Component Sizing Information, AirTerminal:SingleDuct:VAV:Reheat, MECHANICAL_4_Z12_VAVTERMINAL, Design Size Maximum Flow Fraction during Reheat [], 0.20000
 Component Sizing Information, AirTerminal:SingleDuct:VAV:Reheat, MECHANICAL_4_Z12_VAVTERMINAL, User-Specified Maximum Reheat Water Flow Rate [m3/s], 4.01942
 Component Sizing Information, Coil:Heating:Electric, MECHANICAL_4_Z12_REHEATCOIL, User-Specified Nominal Capacity [W], 1205.82501
 Component Sizing Information, AirTerminal:SingleDuct:VAV:Reheat, OFFICE_OPEN_4_Z13_VAVTERMINAL, User-Specified Maximum Air Flow Rate [m3/s], 2.22574
 Component Sizing Information, AirTerminal:SingleDuct:VAV:Reheat, OFFICE_OPEN_4_Z13_VAVTERMINAL, Design Size Constant Minimum Air Flow Fraction, 0.20000
 Component Sizing Information, AirTerminal:SingleDuct:VAV:Reheat, OFFICE_OPEN_4_Z13_VAVTERMINAL, User-Specified Constant Minimum Air Flow Fraction, 0.20000
 Component Sizing Information, AirTerminal:SingleDuct:VAV:Reheat, OFFICE_OPEN_4_Z13_VAVTERMINAL, Design Size Minimum Air Flow Rate [m3/s], 0.44515
 Component Sizing Information, AirTerminal:SingleDuct:VAV:Reheat, OFFICE_OPEN_4_Z13_VAVTERMINAL, Design Size Maximum Flow per Zone Floor Area during Reheat [m3/s-m2], 9.99999E-004
 Component Sizing Information, AirTerminal:SingleDuct:VAV:Reheat, OFFICE_OPEN_4_Z13_VAVTERMINAL, Design Size Maximum Flow Fraction during Reheat [], 0.20000
 Component Sizing Information, AirTerminal:SingleDuct:VAV:Reheat, OFFICE_OPEN_4_Z13_VAVTERMINAL, User-Specified Maximum Reheat Water Flow Rate [m3/s], 35.61187
 Component Sizing Information, Coil:Heating:Electric, OFFICE_OPEN_4_Z13_REHEATCOIL, User-Specified Nominal Capacity [W], 10683.56014
 Component Sizing Information, AirTerminal:SingleDuct:VAV:Reheat, STORAGE_4_Z14_VAVTERMINAL, User-Specified Maximum Air Flow Rate [m3/s], 7.06163E-002
 Component Sizing Information, AirTerminal:SingleDuct:VAV:Reheat, STORAGE_4_Z14_VAVTERMINAL, Design Size Constant Minimum Air Flow Fraction, 0.20000
 Component Sizing Information, AirTerminal:SingleDuct:VAV:Reheat, STORAGE_4_Z14_VAVTERMINAL, User-Specified Constant Minimum Air Flow Fraction, 0.20000
 Component Sizing Information, AirTerminal:SingleDuct:VAV:Reheat, STORAGE_4_Z14_VAVTERMINAL, Design Size Minimum Air Flow Rate [m3/s], 1.41233E-002
 Component Sizing Information, AirTerminal:SingleDuct:VAV:Reheat, STORAGE_4_Z14_VAVTERMINAL, Design Size Maximum Flow per Zone Floor Area during Reheat [m3/s-m2], 1.00001E-003
 Component Sizing Information, AirTerminal:SingleDuct:VAV:Reheat, STORAGE_4_Z14_VAVTERMINAL, Design Size Maximum Flow Fraction during Reheat [], 0.20000
 Component Sizing Information, AirTerminal:SingleDuct:VAV:Reheat, STORAGE_4_Z14_VAVTERMINAL, User-Specified Maximum Reheat Water Flow Rate [m3/s], 1.12986
 Component Sizing Information, Coil:Heating:Electric, STORAGE_4_Z14_REHEATCOIL, User-Specified Nominal Capacity [W], 338.95825
 Component Sizing Information, Coil:Cooling:DX:SingleSpeed, CONFERENCE_0_Z1_COOLINGCOILDX, User-Specified Rated Air Flow Rate [m3/s], 0.45984
 Component Sizing Information, Coil:Cooling:DX:SingleSpeed, CONFERENCE_0_Z1_COOLINGCOILDX, User-Specified Gross Rated Total Cooling Capacity [W], 9196.81898
 Component Sizing Information, Coil:Cooling:DX:SingleSpeed, CONFERENCE_0_Z1_COOLINGCOILDX, User-Specified Gross Rated Sensible Heat Ratio, 0.75000
! <DX Cooling Coil Standard Rating Information>, Component Type, Component Name, Standard Rating (Net) Cooling Capacity {W}, Standard Rating Net COP {W/W}, EER {Btu/W-h}, SEER User {Btu/W-h}, SEER Standard {Btu/W-h}, IEER {Btu/W-h}
 DX Cooling Coil Standard Rating Information, Coil:Cooling:DX:SingleSpeed, CONFERENCE_0_Z1_COOLINGCOILDX, 8839.7, 39.98, 136.43, 54.18, 51.26, 37.2
! <DX Cooling Coil AHRI 2023 Standard Rating Information>, Component Type, Component Name, Standard Rating (Net) Cooling Capacity {W}, Standard Rating Net COP2 {W/W}, EER2 {Btu/W-h}, SEER2 User {Btu/W-h}, SEER2 Standard {Btu/W-h}, IEER 2022 {Btu/W-h}
 DX Cooling Coil AHRI 2023 Standard Rating Information, Coil:Cooling:DX:SingleSpeed, CONFERENCE_0_Z1_COOLINGCOILDX, 8839.7, 39.98, 136.43, 54.18, 52.72, 37.2
 Component Sizing Information, Coil:Heating:Electric, CONFERENCE_0_Z1_HEATINGCOIL, User-Specified Nominal Capacity [W], 7357.45518
 Component Sizing Information, Fan:VariableVolume, CONFERENCE_0_Z1_SUPPLYFAN, User-Specified Maximum Flow Rate [m3/s], 0.45984
 Component Sizing Information, Fan:VariableVolume, CONFERENCE_0_Z1_SUPPLYFAN, Design Electric Power Consumption [W], 394.14938
 Component Sizing Information, Coil:Cooling:DX:SingleSpeed, OFFICE_OPEN_0_Z2_COOLINGCOILDX, User-Specified Rated Air Flow Rate [m3/s], 0.86504
 Component Sizing Information, Coil:Cooling:DX:SingleSpeed, OFFICE_OPEN_0_Z2_COOLINGCOILDX, User-Specified Gross Rated Total Cooling Capacity [W], 17300.80106
 Component Sizing Information, Coil:Cooling:DX:SingleSpeed, OFFICE_OPEN_0_Z2_COOLINGCOILDX, User-Specified Gross Rated Sensible Heat Ratio, 0.75000
 DX Cooling Coil Standard Rating Information, Coil:Cooling:DX:SingleSpeed, OFFICE_OPEN_0_Z2_COOLINGCOILDX, 16629.1, 39.98, 136.43, 54.18, 51.26, 37.2
 DX Cooling Coil AHRI 2023 Standard Rating Information, Coil:Cooling:DX:SingleSpeed, OFFICE_OPEN_0_Z2_COOLINGCOILDX, 16629.1, 39.98, 136.43, 54.18, 52.72, 37.2
 Component Sizing Information, Coil:Heating:Electric, OFFICE_OPEN_0_Z2_HEATINGCOIL, User-Specified Nominal Capacity [W], 13840.64084
 Component Sizing Information, Fan:VariableVolume, OFFICE_OPEN_0_Z2_SUPPLYFAN, User-Specified Maximum Flow Rate [m3/s], 0.86504
 Component Sizing Information, Fan:VariableVolume, OFFICE_OPEN_0_Z2_SUPPLYFAN, Design Electric Power Consumption [W], 741.46290
 Component Sizing Information, Coil:Cooling:DX:SingleSpeed, OFFICE_PRIVATE_0_Z3_COOLINGCOILDX, User-Specified Rated Air Flow Rate [m3/s], 0.22099
 Component Sizing Information, Coil:Cooling:DX:SingleSpeed, OFFICE_PRIVATE_0_Z3_COOLINGCOILDX, User-Specified Gross Rated Total Cooling Capacity [W], 4419.70196
 Component Sizing Information, Coil:Cooling:DX:SingleSpeed, OFFICE_PRIVATE_0_Z3_COOLINGCOILDX, User-Specified Gross Rated Sensible Heat Ratio, 0.75000
 DX Cooling Coil Standard Rating Information, Coil:Cooling:DX:SingleSpeed, OFFICE_PRIVATE_0_Z3_COOLINGCOILDX, 4248.1, 39.98, 136.43, 54.18, 51.26, 37.2
 DX Cooling Coil AHRI 2023 Standard Rating Information, Coil:Cooling:DX:SingleSpeed, OFFICE_PRIVATE_0_Z3_COOLINGCOILDX, 4248.1, 39.98, 136.43, 54.18, 52.72, 37.2
 Component Sizing Information, Coil:Heating:Electric, OFFICE_PRIVATE_0_Z3_HEATINGCOIL, User-Specified Nominal Capacity [W], 3535.76157
 Component Sizing Information, Fan:VariableVolume, OFFICE_PRIVATE_0_Z3_SUPPLYFAN, User-Specified Maximum Flow Rate [m3/s], 0.22099
 Component Sizing Information, Fan:VariableVolume, OFFICE_PRIVATE_0_Z3_SUPPLYFAN, Design Electric Power Consumption [W], 189.41580
 Component Sizing Information, Coil:Cooling:DX:SingleSpeed, BREAK_ROOM_1_Z4_COOLINGCOILDX, User-Specified Rated Air Flow Rate [m3/s], 0.26687
 Component Sizing Information, Coil:Cooling:DX:SingleSpeed, BREAK_ROOM_1_Z4_COOLINGCOILDX, User-Specified Gross Rated Total Cooling Capacity [W], 5337.49507
 Component Sizing Information, Coil:Cooling:DX:SingleSpeed, BREAK_ROOM_1_Z4_COOLINGCOILDX, User-Specified Gross Rated Sensible Heat Ratio, 0.75000
 DX Cooling Coil Standard Rating Information, Coil:Cooling:DX:SingleSpeed, BREAK_ROOM_1_Z4_COOLINGCOILDX, 5130.3, 39.98, 136.43, 54.18, 51.26, 37.2
 DX Cooling Coil AHRI 2023 Standard Rating Information, Coil:Cooling:DX:SingleSpeed, BREAK_ROOM_1_Z4_COOLINGCOILDX, 5130.3, 39.98, 136.43, 54.18, 52.72, 37.2
 Component Sizing Information, Coil:Heating:Electric, BREAK_ROOM_1_Z4_HEATINGCOIL, User-Specified Nominal Capacity [W], 4269.99606
 Component Sizing Information, Fan:VariableVolume, BREAK_ROOM_1_Z4_SUPPLYFAN, User-Specified Maximum Flow Rate [m3/s], 0.26687
 Component Sizing Information, Fan:VariableVolume, BREAK_ROOM_1_Z4_SUPPLYFAN, Design Electric Power Consumption [W], 228.74979
 Component Sizing Information, Coil:Cooling:DX:SingleSpeed, OFFICE_PRIVATE_1_Z5_COOLINGCOILDX, User-Specified Rated Air Flow Rate [m3/s], 0.10216
 Component Sizing Information, Coil:Cooling:DX:SingleSpeed, OFFICE_PRIVATE_1_Z5_COOLINGCOILDX, User-Specified Gross Rated Total Cooling Capacity [W], 2043.15926
 Component Sizing Information, Coil:Cooling:DX:SingleSpeed, OFFICE_PRIVATE_1_Z5_COOLINGCOILDX, User-Specified Gross Rated Sensible Heat Ratio, 0.75000
 DX Cooling Coil Standard Rating Information, Coil:Cooling:DX:SingleSpeed, OFFICE_PRIVATE_1_Z5_COOLINGCOILDX, 1963.8, 39.98, 136.43, 54.18, 51.26, 37.2
 DX Cooling Coil AHRI 2023 Standard Rating Information, Coil:Cooling:DX:SingleSpeed, OFFICE_PRIVATE_1_Z5_COOLINGCOILDX, 1963.8, 39.98, 136.43, 54.18, 52.72, 37.2
 Component Sizing Information, Coil:Heating:Electric, OFFICE_PRIVATE_1_Z5_HEATINGCOIL, User-Specified Nominal Capacity [W], 1634.52741
 Component Sizing Information, Fan:VariableVolume, OFFICE_PRIVATE_1_Z5_SUPPLYFAN, User-Specified Maximum Flow Rate [m3/s], 0.10216
 Component Sizing Information, Fan:VariableVolume, OFFICE_PRIVATE_1_Z5_SUPPLYFAN, Design Electric Power Consumption [W], 87.56397
 Component Sizing Information, Coil:Cooling:DX:SingleSpeed, STORAGE_1_Z6_COOLINGCOILDX, User-Specified Rated Air Flow Rate [m3/s], 0.21326
 Component Sizing Information, Coil:Cooling:DX:SingleSpeed, STORAGE_1_Z6_COOLINGCOILDX, User-Specified Gross Rated Total Cooling Capacity [W], 4265.25722
 Component Sizing Information, Coil:Cooling:DX:SingleSpeed, STORAGE_1_Z6_COOLINGCOILDX, User-Specified Gross Rated Sensible Heat Ratio, 0.75000
 DX Cooling Coil Standard Rating Information, Coil:Cooling:DX:SingleSpeed, STORAGE_1_Z6_COOLINGCOILDX, 4099.7, 39.98, 136.43, 54.18, 51.26, 37.2
 DX Cooling Coil AHRI 2023 Standard Rating Information, Coil:Cooling:DX:SingleSpeed, STORAGE_1_Z6_COOLINGCOILDX, 4099.7, 39.98, 136.43, 54.18, 52.72, 37.2
 Component Sizing Information, Coil:Heating:Electric, STORAGE_1_Z6_HEATINGCOIL, User-Specified Nominal Capacity [W], 3412.20578
 Component Sizing Information, Fan:VariableVolume, STORAGE_1_Z6_SUPPLYFAN, User-Specified Maximum Flow Rate [m3/s], 0.21326
 Component Sizing Information, Fan:VariableVolume, STORAGE_1_Z6_SUPPLYFAN, Design Electric Power Consumption [W], 182.79674
 Component Sizing Information, Coil:Cooling:DX:SingleSpeed, CONFERENCE_2_Z7_COOLINGCOILDX, User-Specified Rated Air Flow Rate [m3/s], 0.40041
 Component Sizing Information, Coil:Cooling:DX:SingleSpeed, CONFERENCE_2_Z7_COOLINGCOILDX, User-Specified Gross Rated Total Cooling Capacity [W], 8008.17289
 Component Sizing Information, Coil:Cooling:DX:SingleSpeed, CONFERENCE_2_Z7_COOLINGCOILDX, User-Specified Gross Rated Sensible Heat Ratio, 0.75000
 DX Cooling Coil Standard Rating Information, Coil:Cooling:DX:SingleSpeed, CONFERENCE_2_Z7_COOLINGCOILDX, 7697.3, 39.98, 136.43, 54.18, 51.26, 37.2
 DX Cooling Coil AHRI 2023 Standard Rating Information, Coil:Cooling:DX:SingleSpeed, CONFERENCE_2_Z7_COOLINGCOILDX, 7697.3, 39.98, 136.43, 54.18, 52.72, 37.2
 Component Sizing Information, Coil:Heating:Electric, CONFERENCE_2_Z7_HEATINGCOIL, User-Specified Nominal Capacity [W], 6406.53831
 Component Sizing Information, Fan:VariableVolume, CONFERENCE_2_Z7_SUPPLYFAN, User-Specified Maximum Flow Rate [m3/s], 0.40041
 Component Sizing Information, Fan:VariableVolume, CONFERENCE_2_Z7_SUPPLYFAN, Design Electric Power Consumption [W], 343.20741
 Component Sizing Information, Coil:Cooling:DX:SingleSpeed, BREAK_ROOM_2_Z8_COOLINGCOILDX, User-Specified Rated Air Flow Rate [m3/s], 0.22399
 Component Sizing Information, Coil:Cooling:DX:SingleSpeed, BREAK_ROOM_2_Z8_COOLINGCOILDX, User-Specified Gross Rated Total Cooling Capacity [W], 4479.84322
 Component Sizing Information, Coil:Cooling:DX:SingleSpeed, BREAK_ROOM_2_Z8_COOLINGCOILDX, User-Specified Gross Rated Sensible Heat Ratio, 0.75000
 DX Cooling Coil Standard Rating Information, Coil:Cooling:DX:SingleSpeed, BREAK_ROOM_2_Z8_COOLINGCOILDX, 4305.9, 39.98, 136.43, 54.18, 51.26, 37.2
 DX Cooling Coil AHRI 2023 Standard Rating Information, Coil:Cooling:DX:SingleSpeed, BREAK_ROOM_2_Z8_COOLINGCOILDX, 4305.9, 39.98, 136.43, 54.18, 52.72, 37.2
 Component Sizing Information, Coil:Heating:Electric, BREAK_ROOM_2_Z8_HEATINGCOIL, User-Specified Nominal Capacity [W], 3583.87458
 Component Sizing Information, Fan:VariableVolume, BREAK_ROOM_2_Z8_SUPPLYFAN, User-Specified Maximum Flow Rate [m3/s], 0.22399
 Component Sizing Information, Fan:VariableVolume, BREAK_ROOM_2_Z8_SUPPLYFAN, Design Electric Power Consumption [W], 191.99328
 Component Sizing Information, Coil:Cooling:DX:SingleSpeed, STORAGE_2_Z9_COOLINGCOILDX, User-Specified Rated Air Flow Rate [m3/s], 0.18490
 Component Sizing Information, Coil:Cooling:DX:SingleSpeed, STORAGE_2_Z9_COOLINGCOILDX, User-Specified Gross Rated Total Cooling Capacity [W], 3697.98159
 Component Sizing Information, Coil:Cooling:DX:SingleSpeed, STORAGE_2_Z9_COOLINGCOILDX, User-Specified Gross Rated Sensible Heat Ratio, 0.75000
 DX Cooling Coil Standard Rating Information, Coil:Cooling:DX:SingleSpeed, STORAGE_2_Z9_COOLINGCOILDX, 3554.4, 39.98, 136.43, 54.18, 51.26, 37.2
 DX Cooling Coil AHRI 2023 Standard Rating Information, Coil:Cooling:DX:SingleSpeed, STORAGE_2_Z9_COOLINGCOILDX, 3554.4, 39.98, 136.43, 54.18, 52.72, 37.2
 Component Sizing Information, Coil:Heating:Electric, STORAGE_2_Z9_HEATINGCOIL, User-Specified Nominal Capacity [W], 2958.38527
 Component Sizing Information, Fan:VariableVolume, STORAGE_2_Z9_SUPPLYFAN, User-Specified Maximum Flow Rate [m3/s], 0.18490
 Component Sizing Information, Fan:VariableVolume, STORAGE_2_Z9_SUPPLYFAN, Design Electric Power Consumption [W], 158.48493
 Component Sizing Information, Coil:Cooling:DX:SingleSpeed, LOBBY_3_Z10_COOLINGCOILDX, User-Specified Rated Air Flow Rate [m3/s], 0.55020
 Component Sizing Information, Coil:Cooling:DX:SingleSpeed, LOBBY_3_Z10_COOLINGCOILDX, User-Specified Gross Rated Total Cooling Capacity [W], 11004.01695
 Component Sizing Information, Coil:Cooling:DX:SingleSpeed, LOBBY_3_Z10_COOLINGCOILDX, User-Specified Gross Rated Sensible Heat Ratio, 0.75000
 DX Cooling Coil Standard Rating Information, Coil:Cooling:DX:SingleSpeed, LOBBY_3_Z10_COOLINGCOILDX, 10576.8, 39.98, 136.43, 54.18, 51.26, 37.2
 DX Cooling Coil AHRI 2023 Standard Rating Information, Coil:Cooling:DX:SingleSpeed, LOBBY_3_Z10_COOLINGCOILDX, 10576.8, 39.98, 136.43, 54.18, 52.72, 37.2
 Component Sizing Information, Coil:Heating:Electric, LOBBY_3_Z10_HEATINGCOIL, User-Specified Nominal Capacity [W], 8803.21356
 Component Sizing Information, Fan:VariableVolume, LOBBY_3_Z10_SUPPLYFAN, User-Specified Maximum Flow Rate [m3/s], 0.55020
 Component Sizing Information, Fan:VariableVolume, LOBBY_3_Z10_SUPPLYFAN, Design Electric Power Consumption [W], 471.60073
 Component Sizing Information, Coil:Cooling:DX:SingleSpeed, CONFERENCE_3_Z11_COOLINGCOILDX, User-Specified Rated Air Flow Rate [m3/s], 0.41468
 Component Sizing Information, Coil:Cooling:DX:SingleSpeed, CONFERENCE_3_Z11_COOLINGCOILDX, User-Specified Gross Rated Total Cooling Capacity [W], 8293.59930
 Component Sizing Information, Coil:Cooling:DX:SingleSpeed, CONFERENCE_3_Z11_COOLINGCOILDX, User-Specified Gross Rated Sensible Heat Ratio, 0.75000
 DX Cooling Coil Standard Rating Information, Coil:Cooling:DX:SingleSpeed, CONFERENCE_3_Z11_COOLINGCOILDX, 7971.6, 39.98, 136.43, 54.18, 51.26, 37.2
 DX Cooling Coil AHRI 2023 Standard Rating Information, Coil:Cooling:DX:SingleSpeed, CONFERENCE_3_Z11_COOLINGCOILDX, 7971.6, 39.98, 136.43, 54.18, 52.72, 37.2
 Component Sizing Information, Coil:Heating:Electric, CONFERENCE_3_Z11_HEATINGCOIL, User-Specified Nominal Capacity [W], 6634.87944
 Component Sizing Information, Fan:VariableVolume, CONFERENCE_3_Z11_SUPPLYFAN, User-Specified Maximum Flow Rate [m3/s], 0.41468
 Component Sizing Information, Fan:VariableVolume, CONFERENCE_3_Z11_SUPPLYFAN, Design Electric Power Consumption [W], 355.43997
 Component Sizing Information, Coil:Cooling:DX:SingleSpeed, MECHANICAL_4_Z12_COOLINGCOILDX, User-Specified Rated Air Flow Rate [m3/s], 0.25121
 Component Sizing Information, Coil:Cooling:DX:SingleSpeed, MECHANICAL_4_Z12_COOLINGCOILDX, User-Specified Gross Rated Total Cooling Capacity [W], 5024.27088
 Component Sizing Information, Coil:Cooling:DX:SingleSpeed, MECHANICAL_4_Z12_COOLINGCOILDX, User-Specified Gross Rated Sensible Heat Ratio, 0.75000
 DX Cooling Coil Standard Rating Information, Coil:Cooling:DX:SingleSpeed, MECHANICAL_4_Z12_COOLINGCOILDX, 4829.2, 39.98, 136.43, 54.18, 51.26, 37.2
 DX Cooling Coil AHRI 2023 Standard Rating Information, Coil:Cooling:DX:SingleSpeed, MECHANICAL_4_Z12_COOLINGCOILDX, 4829.2, 39.98, 136.43, 54.18, 52.72, 37.2
 Component Sizing Information, Coil:Heating:Electric, MECHANICAL_4_Z12_HEATINGCOIL, User-Specified Nominal Capacity [W], 4019.41670
 Component Sizing Information, Fan:VariableVolume, MECHANICAL_4_Z12_SUPPLYFAN, User-Specified Maximum Flow Rate [m3/s], 0.25121
 Component Sizing Information, Fan:VariableVolume, MECHANICAL_4_Z12_SUPPLYFAN, Design Electric Power Consumption [W], 215.32589
 Component Sizing Information, Coil:Cooling:DX:SingleSpeed, OFFICE_OPEN_4_Z13_COOLINGCOILDX, User-Specified Rated Air Flow Rate [m3/s], 2.22574
 Component Sizing Information, Coil:Cooling:DX:SingleSpeed, OFFICE_OPEN_4_Z13_COOLINGCOILDX, User-Specified Gross Rated Total Cooling Capacity [W], 44514.83391
 Component Sizing Information, Coil:Cooling:DX:SingleSpeed, OFFICE_OPEN_4_Z13_COOLINGCOILDX, User-Specified Gross Rated Sensible Heat Ratio, 0.75000
 DX Cooling Coil Standard Rating Information, Coil:Cooling:DX:SingleSpeed, OFFICE_OPEN_4_Z13_COOLINGCOILDX, 42786.5, 39.98, 136.43, 54.18, 51.26, 37.2
 DX Cooling Coil AHRI 2023 Standard Rating Information, Coil:Cooling:DX:SingleSpeed, OFFICE_OPEN_4_Z13_COOLINGCOILDX, 42786.5, 39.98, 136.43, 54.18, 52.72, 37.2
 Component Sizing Information, Coil:Heating:Electric, OFFICE_OPEN_4_Z13_HEATINGCOIL, User-Specified Nominal Capacity [W], 35611.86713
 Component Sizing Information, Fan:VariableVolume, OFFICE_OPEN_4_Z13_SUPPLYFAN, User-Specified Maximum Flow Rate [m3/s], 2.22574
 Component Sizing Information, Fan:VariableVolume, OFFICE_OPEN_4_Z13_SUPPLYFAN, Design Electric Power Consumption [W], 1907.77860
 Component Sizing Information, Coil:Cooling:DX:SingleSpeed, STORAGE_4_Z14_COOLINGCOILDX, User-Specified Rated Air Flow Rate [m3/s], 7.06163E-002
 Component Sizing Information, Coil:Cooling:DX:SingleSpeed, STORAGE_4_Z14_COOLINGCOILDX, User-Specified Gross Rated Total Cooling Capacity [W], 1412.32603
 Component Sizing Information, Coil:Cooling:DX:SingleSpeed, STORAGE_4_Z14_COOLINGCOILDX, User-Specified Gross Rated Sensible Heat Ratio, 0.75000
 DX Cooling Coil Standard Rating Information, Coil:Cooling:DX:SingleSpeed, STORAGE_4_Z14_COOLINGCOILDX, 1357.5, 39.98, 136.43, 54.18, 51.26, 37.2
 DX Cooling Coil AHRI 2023 Standard Rating Information, Coil:Cooling:DX:SingleSpeed, STORAGE_4_Z14_COOLINGCOILDX, 1357.5, 39.98, 136.43, 54.18, 52.72, 37.2
 Component Sizing Information, Coil:Heating:Electric, STORAGE_4_Z14_HEATINGCOIL, User-Specified Nominal Capacity [W], 1129.86083
 Component Sizing Information, Fan:VariableVolume, STORAGE_4_Z14_SUPPLYFAN, User-Specified Maximum Flow Rate [m3/s], 7.06163E-002
 Component Sizing Information, Fan:VariableVolume, STORAGE_4_Z14_SUPPLYFAN, Design Electric Power Consumption [W], 60.52826
! <Environment>,Environment Name,Environment Type, Start Date, End Date, Start DayOfWeek, Duration {#days}, Source:Start DayOfWeek,  Use Daylight Saving, Use Holidays, Apply Weekend Holiday Rule,  Use Rain Values, Use Snow Values, Sky Temperature Model
! <Environment:Special Days>, Special Day Name, Special Day Type, Source, Start Date, Duration {#days}
! <Environment:Daylight Saving>, Daylight Saving Indicator, Source, Start Date, End Date
! <Environment:WarmupDays>, NumberofWarmupDays
Environment,YEAR ROUND RUN PERIOD,WeatherFileRunPeriod,01/01/2017,12/31/2017,Sunday,365,Use RunPeriod Specified Day,Yes,Yes,Yes,Yes,Yes,Clark and Allen
Environment:Daylight Saving,No,
! <Sky Daylight Factors>, Sky Type, MonthAndDay, Daylighting Control Name, Enclosure Name, Window Name, Reference Point, Daylight Factor
 Sky Daylight Factors,Clear Sky,01/01,CONFERENCE_0_DAYLIGHT,CONFERENCE_0,CONFERENCE_0_WINDOW_1,CONFERENCE_0_REFERENCEPOINT1,4.0918E-003
 Sky Daylight Factors,Clear Turbid Sky,01/01,CONFERENCE_0_DAYLIGHT,CONFERENCE_0,CONFERENCE_0_WINDOW_1,CONFERENCE_0_REFERENCEPOINT1,4.5197E-003
 Sky Daylight Factors,Intermediate Sky,01/01,CONFERENCE_0_DAYLIGHT,CONFERENCE_0,CONFERENCE_0_WINDOW_1,CONFERENCE_0_REFERENCEPOINT1,2.8572E-003
 Sky Daylight Factors,Overcast Sky,01/01,CONFERENCE_0_DAYLIGHT,CONFERENCE_0,CONFERENCE_0_WINDOW_1,CONFERENCE_0_REFERENCEPOINT1,1.5624E-003
 Sky Daylight Factors,Clear Sky,01/01,CONFERENCE_0_DAYLIGHT,CONFERENCE_0,CONFERENCE_0_WINDOW_2,CONFERENCE_0_REFERENCEPOINT1,6.2854E-003
 Sky Daylight Factors,Clear Turbid Sky,01/01,CONFERENCE_0_DAYLIGHT,CONFERENCE_0,CONFERENCE_0_WINDOW_2,CONFERENCE_0_REFERENCEPOINT1,5.8970E-003
 Sky Daylight Factors,Intermediate Sky,01/01,CONFERENCE_0_DAYLIGHT,CONFERENCE_0,CONFERENCE_0_WINDOW_2,CONFERENCE_0_REFERENCEPOINT1,5.8598E-003
 Sky Daylight Factors,Overcast Sky,01/01,CONFERENCE_0_DAYLIGHT,CONFERENCE_0,CONFERENCE_0_WINDOW_2,CONFERENCE_0_REFERENCEPOINT1,4.9102E-003
 Sky Daylight Factors,Clear Sky,01/01,CONFERENCE_0_DAYLIGHT,CONFERENCE_0,CONFERENCE_0_WINDOW_3,CONFERENCE_0_REFERENCEPOINT1,2.6167E-003
 Sky Daylight Factors,Clear Turbid Sky,01/01,CONFERENCE_0_DAYLIGHT,CONFERENCE_0,CONFERENCE_0_WINDOW_3,CONFERENCE_0_REFERENCEPOINT1,2.1866E-003
 Sky Daylight Factors,Intermediate Sky,01/01,CONFERENCE_0_DAYLIGHT,CONFERENCE_0,CONFERENCE_0_WINDOW_3,CONFERENCE_0_REFERENCEPOINT1,2.0821E-003
 Sky Daylight Factors,Overcast Sky,01/01,CONFERENCE_0_DAYLIGHT,CONFERENCE_0,CONFERENCE_0_WINDOW_3,CONFERENCE_0_REFERENCEPOINT1,2.8979E-003
 Sky Daylight Factors,Clear Sky,01/01,CONFERENCE_0_DAYLIGHT,CONFERENCE_0,CONFERENCE_0_WINDOW_4,CONFERENCE_0_REFERENCEPOINT1,4.1156E-003
 Sky Daylight Factors,Clear Turbid Sky,01/01,CONFERENCE_0_DAYLIGHT,CONFERENCE_0,CONFERENCE_0_WINDOW_4,CONFERENCE_0_REFERENCEPOINT1,3.9492E-003
 Sky Daylight Factors,Intermediate Sky,01/01,CONFERENCE_0_DAYLIGHT,CONFERENCE_0,CONFERENCE_0_WINDOW_4,CONFERENCE_0_REFERENCEPOINT1,3.8415E-003
 Sky Daylight Factors,Overcast Sky,01/01,CONFERENCE_0_DAYLIGHT,CONFERENCE_0,CONFERENCE_0_WINDOW_4,CONFERENCE_0_REFERENCEPOINT1,3.0546E-003
 Sky Daylight Factors,Clear Sky,01/01,OFFICE_OPEN_0_DAYLIGHT,OFFICE_OPEN_0,OFFICE_OPEN_0_WINDOW_1,OFFICE_OPEN_0_REFERENCEPOINT1,3.7297E-003
 Sky Daylight Factors,Clear Turbid Sky,01/01,OFFICE_OPEN_0_DAYLIGHT,OFFICE_OPEN_0,OFFICE_OPEN_0_WINDOW_1,OFFICE_OPEN_0_REFERENCEPOINT1,4.1989E-003
 Sky Daylight Factors,Intermediate Sky,01/01,OFFICE_OPEN_0_DAYLIGHT,OFFICE_OPEN_0,OFFICE_OPEN_0_WINDOW_1,OFFICE_OPEN_0_REFERENCEPOINT1,2.6065E-003
 Sky Daylight Factors,Overcast Sky,01/01,OFFICE_OPEN_0_DAYLIGHT,OFFICE_OPEN_0,OFFICE_OPEN_0_WINDOW_1,OFFICE_OPEN_0_REFERENCEPOINT1,1.3794E-003
 Sky Daylight Factors,Clear Sky,01/01,OFFICE_OPEN_0_DAYLIGHT,OFFICE_OPEN_0,OFFICE_OPEN_0_WINDOW_2,OFFICE_OPEN_0_REFERENCEPOINT1,4.3876E-003
 Sky Daylight Factors,Clear Turbid Sky,01/01,OFFICE_OPEN_0_DAYLIGHT,OFFICE_OPEN_0,OFFICE_OPEN_0_WINDOW_2,OFFICE_OPEN_0_REFERENCEPOINT1,4.0513E-003
 Sky Daylight Factors,Intermediate Sky,01/01,OFFICE_OPEN_0_DAYLIGHT,OFFICE_OPEN_0,OFFICE_OPEN_0_WINDOW_2,OFFICE_OPEN_0_REFERENCEPOINT1,4.0449E-003
 Sky Daylight Factors,Overcast Sky,01/01,OFFICE_OPEN_0_DAYLIGHT,OFFICE_OPEN_0,OFFICE_OPEN_0_WINDOW_2,OFFICE_OPEN_0_REFERENCEPOINT1,3.5837E-003
 Sky Daylight Factors,Clear Sky,01/01,OFFICE_OPEN_0_DAYLIGHT,OFFICE_OPEN_0,OFFICE_OPEN_0_WINDOW_3,OFFICE_OPEN_0_REFERENCEPOINT1,2.2080E-003
 Sky Daylight Factors,Clear Turbid Sky,01/01,OFFICE_OPEN_0_DAYLIGHT,OFFICE_OPEN_0,OFFICE_OPEN_0_WINDOW_3,OFFICE_OPEN_0_REFERENCEPOINT1,1.8283E-003
 Sky Daylight Factors,Intermediate Sky,01/01,OFFICE_OPEN_0_DAYLIGHT,OFFICE_OPEN_0,OFFICE_OPEN_0_WINDOW_3,OFFICE_OPEN_0_REFERENCEPOINT1,1.5983E-003
 Sky Daylight Factors,Overcast Sky,01/01,OFFICE_OPEN_0_DAYLIGHT,OFFICE_OPEN_0,OFFICE_OPEN_0_WINDOW_3,OFFICE_OPEN_0_REFERENCEPOINT1,1.9997E-003
 Sky Daylight Factors,Clear Sky,01/01,OFFICE_OPEN_0_DAYLIGHT,OFFICE_OPEN_0,OFFICE_OPEN_0_WINDOW_4,OFFICE_OPEN_0_REFERENCEPOINT1,4.9165E-003
 Sky Daylight Factors,Clear Turbid Sky,01/01,OFFICE_OPEN_0_DAYLIGHT,OFFICE_OPEN_0,OFFICE_OPEN_0_WINDOW_4,OFFICE_OPEN_0_REFERENCEPOINT1,4.6347E-003
 Sky Daylight Factors,Intermediate Sky,01/01,OFFICE_OPEN_0_DAYLIGHT,OFFICE_OPEN_0,OFFICE_OPEN_0_WINDOW_4,OFFICE_OPEN_0_REFERENCEPOINT1,4.6615E-003
 Sky Daylight Factors,Overcast Sky,01/01,OFFICE_OPEN_0_DAYLIGHT,OFFICE_OPEN_0,OFFICE_OPEN_0_WINDOW_4,OFFICE_OPEN_0_REFERENCEPOINT1,4.0245E-003
 Sky Daylight Factors,Clear Sky,01/01,OFFICE_PRIVATE_0_DAYLIGHT,OFFICE_PRIVATE_0,OFFICE_PRIVATE_0_WINDOW_1,OFFICE_PRIVATE_0_REFERENCEPOINT1,6.7092E-003
 Sky Daylight Factors,Clear Turbid Sky,01/01,OFFICE_PRIVATE_0_DAYLIGHT,OFFICE_PRIVATE_0,OFFICE_PRIVATE_0_WINDOW_1,OFFICE_PRIVATE_0_REFERENCEPOINT1,7.4868E-003
 Sky Daylight Factors,Intermediate Sky,01/01,OFFICE_PRIVATE_0_DAYLIGHT,OFFICE_PRIVATE_0,OFFICE_PRIVATE_0_WINDOW_1,OFFICE_PRIVATE_0_REFERENCEPOINT1,4.7445E-003
 Sky Daylight Factors,Overcast Sky,01/01,OFFICE_PRIVATE_0_DAYLIGHT,OFFICE_PRIVATE_0,OFFICE_PRIVATE_0_WINDOW_1,OFFICE_PRIVATE_0_REFERENCEPOINT1,2.4511E-003
 Sky Daylight Factors,Clear Sky,01/01,OFFICE_PRIVATE_0_DAYLIGHT,OFFICE_PRIVATE_0,OFFICE_PRIVATE_0_WINDOW_2,OFFICE_PRIVATE_0_REFERENCEPOINT1,4.7560E-003
 Sky Daylight Factors,Clear Turbid Sky,01/01,OFFICE_PRIVATE_0_DAYLIGHT,OFFICE_PRIVATE_0,OFFICE_PRIVATE_0_WINDOW_2,OFFICE_PRIVATE_0_REFERENCEPOINT1,4.6310E-003
 Sky Daylight Factors,Intermediate Sky,01/01,OFFICE_PRIVATE_0_DAYLIGHT,OFFICE_PRIVATE_0,OFFICE_PRIVATE_0_WINDOW_2,OFFICE_PRIVATE_0_REFERENCEPOINT1,4.6839E-003
 Sky Daylight Factors,Overcast Sky,01/01,OFFICE_PRIVATE_0_DAYLIGHT,OFFICE_PRIVATE_0,OFFICE_PRIVATE_0_WINDOW_2,OFFICE_PRIVATE_0_REFERENCEPOINT1,4.0380E-003
 Sky Daylight Factors,Clear Sky,01/01,OFFICE_PRIVATE_0_DAYLIGHT,OFFICE_PRIVATE_0,OFFICE_PRIVATE_0_WINDOW_3,OFFICE_PRIVATE_0_REFERENCEPOINT1,4.0073E-003
 Sky Daylight Factors,Clear Turbid Sky,01/01,OFFICE_PRIVATE_0_DAYLIGHT,OFFICE_PRIVATE_0,OFFICE_PRIVATE_0_WINDOW_3,OFFICE_PRIVATE_0_REFERENCEPOINT1,3.2792E-003
 Sky Daylight Factors,Intermediate Sky,01/01,OFFICE_PRIVATE_0_DAYLIGHT,OFFICE_PRIVATE_0,OFFICE_PRIVATE_0_WINDOW_3,OFFICE_PRIVATE_0_REFERENCEPOINT1,2.9950E-003
 Sky Daylight Factors,Overcast Sky,01/01,OFFICE_PRIVATE_0_DAYLIGHT,OFFICE_PRIVATE_0,OFFICE_PRIVATE_0_WINDOW_3,OFFICE_PRIVATE_0_REFERENCEPOINT1,4.2453E-003
 Sky Daylight Factors,Clear Sky,01/01,OFFICE_PRIVATE_0_DAYLIGHT,OFFICE_PRIVATE_0,OFFICE_PRIVATE_0_WINDOW_4,OFFICE_PRIVATE_0_REFERENCEPOINT1,7.5224E-003
 Sky Daylight Factors,Clear Turbid Sky,01/01,OFFICE_PRIVATE_0_DAYLIGHT,OFFICE_PRIVATE_0,OFFICE_PRIVATE_0_WINDOW_4,OFFICE_PRIVATE_0_REFERENCEPOINT1,7.0523E-003
 Sky Daylight Factors,Intermediate Sky,01/01,OFFICE_PRIVATE_0_DAYLIGHT,OFFICE_PRIVATE_0,OFFICE_PRIVATE_0_WINDOW_4,OFFICE_PRIVATE_0_REFERENCEPOINT1,7.0822E-003
 Sky Daylight Factors,Overcast Sky,01/01,OFFICE_PRIVATE_0_DAYLIGHT,OFFICE_PRIVATE_0,OFFICE_PRIVATE_0_WINDOW_4,OFFICE_PRIVATE_0_REFERENCEPOINT1,6.0719E-003
 Sky Daylight Factors,Clear Sky,01/01,BREAK_ROOM_1_DAYLIGHT,BREAK_ROOM_1,BREAK_ROOM_1_WINDOW_1,BREAK_ROOM_1_REFERENCEPOINT1,5.9199E-003
 Sky Daylight Factors,Clear Turbid Sky,01/01,BREAK_ROOM_1_DAYLIGHT,BREAK_ROOM_1,BREAK_ROOM_1_WINDOW_1,BREAK_ROOM_1_REFERENCEPOINT1,6.6000E-003
 Sky Daylight Factors,Intermediate Sky,01/01,BREAK_ROOM_1_DAYLIGHT,BREAK_ROOM_1,BREAK_ROOM_1_WINDOW_1,BREAK_ROOM_1_REFERENCEPOINT1,4.1861E-003
 Sky Daylight Factors,Overcast Sky,01/01,BREAK_ROOM_1_DAYLIGHT,BREAK_ROOM_1,BREAK_ROOM_1_WINDOW_1,BREAK_ROOM_1_REFERENCEPOINT1,2.1818E-003
 Sky Daylight Factors,Clear Sky,01/01,BREAK_ROOM_1_DAYLIGHT,BREAK_ROOM_1,BREAK_ROOM_1_WINDOW_2,BREAK_ROOM_1_REFERENCEPOINT1,1.9007E-003
 Sky Daylight Factors,Clear Turbid Sky,01/01,BREAK_ROOM_1_DAYLIGHT,BREAK_ROOM_1,BREAK_ROOM_1_WINDOW_2,BREAK_ROOM_1_REFERENCEPOINT1,1.8875E-003
 Sky Daylight Factors,Intermediate Sky,01/01,BREAK_ROOM_1_DAYLIGHT,BREAK_ROOM_1,BREAK_ROOM_1_WINDOW_2,BREAK_ROOM_1_REFERENCEPOINT1,1.7614E-003
 Sky Daylight Factors,Overcast Sky,01/01,BREAK_ROOM_1_DAYLIGHT,BREAK_ROOM_1,BREAK_ROOM_1_WINDOW_2,BREAK_ROOM_1_REFERENCEPOINT1,1.4333E-003
 Sky Daylight Factors,Clear Sky,01/01,BREAK_ROOM_1_DAYLIGHT,BREAK_ROOM_1,BREAK_ROOM_1_WINDOW_3,BREAK_ROOM_1_REFERENCEPOINT1,2.6805E-003
 Sky Daylight Factors,Clear Turbid Sky,01/01,BREAK_ROOM_1_DAYLIGHT,BREAK_ROOM_1,BREAK_ROOM_1_WINDOW_3,BREAK_ROOM_1_REFERENCEPOINT1,2.1823E-003
 Sky Daylight Factors,Intermediate Sky,01/01,BREAK_ROOM_1_DAYLIGHT,BREAK_ROOM_1,BREAK_ROOM_1_WINDOW_3,BREAK_ROOM_1_REFERENCEPOINT1,1.9644E-003
 Sky Daylight Factors,Overcast Sky,01/01,BREAK_ROOM_1_DAYLIGHT,BREAK_ROOM_1,BREAK_ROOM_1_WINDOW_3,BREAK_ROOM_1_REFERENCEPOINT1,2.6901E-003
 Sky Daylight Factors,Clear Sky,01/01,BREAK_ROOM_1_DAYLIGHT,BREAK_ROOM_1,BREAK_ROOM_1_WINDOW_4,BREAK_ROOM_1_REFERENCEPOINT1,7.4164E-003
 Sky Daylight Factors,Clear Turbid Sky,01/01,BREAK_ROOM_1_DAYLIGHT,BREAK_ROOM_1,BREAK_ROOM_1_WINDOW_4,BREAK_ROOM_1_REFERENCEPOINT1,6.9522E-003
 Sky Daylight Factors,Intermediate Sky,01/01,BREAK_ROOM_1_DAYLIGHT,BREAK_ROOM_1,BREAK_ROOM_1_WINDOW_4,BREAK_ROOM_1_REFERENCEPOINT1,6.9839E-003
 Sky Daylight Factors,Overcast Sky,01/01,BREAK_ROOM_1_DAYLIGHT,BREAK_ROOM_1,BREAK_ROOM_1_WINDOW_4,BREAK_ROOM_1_REFERENCEPOINT1,5.9828E-003
 Sky Daylight Factors,Clear Sky,01/01,OFFICE_PRIVATE_1_DAYLIGHT,OFFICE_PRIVATE_1,OFFICE_PRIVATE_1_WINDOW_1,OFFICE_PRIVATE_1_REFERENCEPOINT1,3.6028E-003
 Sky Daylight Factors,Clear Turbid Sky,01/01,OFFICE_PRIVATE_1_DAYLIGHT,OFFICE_PRIVATE_1,OFFICE_PRIVATE_1_WINDOW_1,OFFICE_PRIVATE_1_REFERENCEPOINT1,4.1538E-003
 Sky Daylight Factors,Intermediate Sky,01/01,OFFICE_PRIVATE_1_DAYLIGHT,OFFICE_PRIVATE_1,OFFICE_PRIVATE_1_WINDOW_1,OFFICE_PRIVATE_1_REFERENCEPOINT1,2.3517E-003
 Sky Daylight Factors,Overcast Sky,01/01,OFFICE_PRIVATE_1_DAYLIGHT,OFFICE_PRIVATE_1,OFFICE_PRIVATE_1_WINDOW_1,OFFICE_PRIVATE_1_REFERENCEPOINT1,1.3400E-003
 Sky Daylight Factors,Clear Sky,01/01,OFFICE_PRIVATE_1_DAYLIGHT,OFFICE_PRIVATE_1,OFFICE_PRIVATE_1_WINDOW_2,OFFICE_PRIVATE_1_REFERENCEPOINT1,5.3830E-003
 Sky Daylight Factors,Clear Turbid Sky,01/01,OFFICE_PRIVATE_1_DAYLIGHT,OFFICE_PRIVATE_1,OFFICE_PRIVATE_1_WINDOW_2,OFFICE_PRIVATE_1_REFERENCEPOINT1,4.8657E-003
 Sky Daylight Factors,Intermediate Sky,01/01,OFFICE_PRIVATE_1_DAYLIGHT,OFFICE_PRIVATE_1,OFFICE_PRIVATE_1_WINDOW_2,OFFICE_PRIVATE_1_REFERENCEPOINT1,5.2224E-003
 Sky Daylight Factors,Overcast Sky,01/01,OFFICE_PRIVATE_1_DAYLIGHT,OFFICE_PRIVATE_1,OFFICE_PRIVATE_1_WINDOW_2,OFFICE_PRIVATE_1_REFERENCEPOINT1,4.8046E-003
 Sky Daylight Factors,Clear Sky,01/01,OFFICE_PRIVATE_1_DAYLIGHT,OFFICE_PRIVATE_1,OFFICE_PRIVATE_1_WINDOW_3,OFFICE_PRIVATE_1_REFERENCEPOINT1,3.5818E-003
 Sky Daylight Factors,Clear Turbid Sky,01/01,OFFICE_PRIVATE_1_DAYLIGHT,OFFICE_PRIVATE_1,OFFICE_PRIVATE_1_WINDOW_3,OFFICE_PRIVATE_1_REFERENCEPOINT1,2.9623E-003
 Sky Daylight Factors,Intermediate Sky,01/01,OFFICE_PRIVATE_1_DAYLIGHT,OFFICE_PRIVATE_1,OFFICE_PRIVATE_1_WINDOW_3,OFFICE_PRIVATE_1_REFERENCEPOINT1,2.7452E-003
 Sky Daylight Factors,Overcast Sky,01/01,OFFICE_PRIVATE_1_DAYLIGHT,OFFICE_PRIVATE_1,OFFICE_PRIVATE_1_WINDOW_3,OFFICE_PRIVATE_1_REFERENCEPOINT1,3.6621E-003
 Sky Daylight Factors,Clear Sky,01/01,OFFICE_PRIVATE_1_DAYLIGHT,OFFICE_PRIVATE_1,OFFICE_PRIVATE_1_WINDOW_4,OFFICE_PRIVATE_1_REFERENCEPOINT1,0.0000
 Sky Daylight Factors,Clear Turbid Sky,01/01,OFFICE_PRIVATE_1_DAYLIGHT,OFFICE_PRIVATE_1,OFFICE_PRIVATE_1_WINDOW_4,OFFICE_PRIVATE_1_REFERENCEPOINT1,0.0000
 Sky Daylight Factors,Intermediate Sky,01/01,OFFICE_PRIVATE_1_DAYLIGHT,OFFICE_PRIVATE_1,OFFICE_PRIVATE_1_WINDOW_4,OFFICE_PRIVATE_1_REFERENCEPOINT1,0.0000
 Sky Daylight Factors,Overcast Sky,01/01,OFFICE_PRIVATE_1_DAYLIGHT,OFFICE_PRIVATE_1,OFFICE_PRIVATE_1_WINDOW_4,OFFICE_PRIVATE_1_REFERENCEPOINT1,0.0000
 Sky Daylight Factors,Clear Sky,01/01,CONFERENCE_2_DAYLIGHT,CONFERENCE_2,CONFERENCE_2_WINDOW_1,CONFERENCE_2_REFERENCEPOINT1,1.6414E-004
 Sky Daylight Factors,Clear Turbid Sky,01/01,CONFERENCE_2_DAYLIGHT,CONFERENCE_2,CONFERENCE_2_WINDOW_1,CONFERENCE_2_REFERENCEPOINT1,1.5510E-004
 Sky Daylight Factors,Intermediate Sky,01/01,CONFERENCE_2_DAYLIGHT,CONFERENCE_2,CONFERENCE_2_WINDOW_1,CONFERENCE_2_REFERENCEPOINT1,1.6634E-004
 Sky Daylight Factors,Overcast Sky,01/01,CONFERENCE_2_DAYLIGHT,CONFERENCE_2,CONFERENCE_2_WINDOW_1,CONFERENCE_2_REFERENCEPOINT1,1.2557E-004
 Sky Daylight Factors,Clear Sky,01/01,CONFERENCE_2_DAYLIGHT,CONFERENCE_2,CONFERENCE_2_WINDOW_2,CONFERENCE_2_REFERENCEPOINT1,1.8642E-003
 Sky Daylight Factors,Clear Turbid Sky,01/01,CONFERENCE_2_DAYLIGHT,CONFERENCE_2,CONFERENCE_2_WINDOW_2,CONFERENCE_2_REFERENCEPOINT1,1.6877E-003
 Sky Daylight Factors,Intermediate Sky,01/01,CONFERENCE_2_DAYLIGHT,CONFERENCE_2,CONFERENCE_2_WINDOW_2,CONFERENCE_2_REFERENCEPOINT1,1.5149E-003
 Sky Daylight Factors,Overcast Sky,01/01,CONFERENCE_2_DAYLIGHT,CONFERENCE_2,CONFERENCE_2_WINDOW_2,CONFERENCE_2_REFERENCEPOINT1,1.5791E-003
 Sky Daylight Factors,Clear Sky,01/01,CONFERENCE_2_DAYLIGHT,CONFERENCE_2,CONFERENCE_2_WINDOW_3,CONFERENCE_2_REFERENCEPOINT1,3.7489E-003
 Sky Daylight Factors,Clear Turbid Sky,01/01,CONFERENCE_2_DAYLIGHT,CONFERENCE_2,CONFERENCE_2_WINDOW_3,CONFERENCE_2_REFERENCEPOINT1,3.0529E-003
 Sky Daylight Factors,Intermediate Sky,01/01,CONFERENCE_2_DAYLIGHT,CONFERENCE_2,CONFERENCE_2_WINDOW_3,CONFERENCE_2_REFERENCEPOINT1,2.7393E-003
 Sky Daylight Factors,Overcast Sky,01/01,CONFERENCE_2_DAYLIGHT,CONFERENCE_2,CONFERENCE_2_WINDOW_3,CONFERENCE_2_REFERENCEPOINT1,3.7837E-003
 Sky Daylight Factors,Clear Sky,01/01,CONFERENCE_2_DAYLIGHT,CONFERENCE_2,CONFERENCE_2_WINDOW_4,CONFERENCE_2_REFERENCEPOINT1,6.4929E-003
 Sky Daylight Factors,Clear Turbid Sky,01/01,CONFERENCE_2_DAYLIGHT,CONFERENCE_2,CONFERENCE_2_WINDOW_4,CONFERENCE_2_REFERENCEPOINT1,6.0486E-003
 Sky Daylight Factors,Intermediate Sky,01/01,CONFERENCE_2_DAYLIGHT,CONFERENCE_2,CONFERENCE_2_WINDOW_4,CONFERENCE_2_REFERENCEPOINT1,6.0584E-003
 Sky Daylight Factors,Overcast Sky,01/01,CONFERENCE_2_DAYLIGHT,CONFERENCE_2,CONFERENCE_2_WINDOW_4,CONFERENCE_2_REFERENCEPOINT1,5.0767E-003
 Sky Daylight Factors,Clear Sky,01/01,BREAK_ROOM_2_DAYLIGHT,BREAK_ROOM_2,BREAK_ROOM_2_WINDOW_1,BREAK_ROOM_2_REFERENCEPOINT1,3.5361E-003
 Sky Daylight Factors,Clear Turbid Sky,01/01,BREAK_ROOM_2_DAYLIGHT,BREAK_ROOM_2,BREAK_ROOM_2_WINDOW_1,BREAK_ROOM_2_REFERENCEPOINT1,3.8621E-003
 Sky Daylight Factors,Intermediate Sky,01/01,BREAK_ROOM_2_DAYLIGHT,BREAK_ROOM_2,BREAK_ROOM_2_WINDOW_1,BREAK_ROOM_2_REFERENCEPOINT1,2.1650E-003
 Sky Daylight Factors,Overcast Sky,01/01,BREAK_ROOM_2_DAYLIGHT,BREAK_ROOM_2,BREAK_ROOM_2_WINDOW_1,BREAK_ROOM_2_REFERENCEPOINT1,1.0357E-003
 Sky Daylight Factors,Clear Sky,01/01,BREAK_ROOM_2_DAYLIGHT,BREAK_ROOM_2,BREAK_ROOM_2_WINDOW_2,BREAK_ROOM_2_REFERENCEPOINT1,3.1300E-003
 Sky Daylight Factors,Clear Turbid Sky,01/01,BREAK_ROOM_2_DAYLIGHT,BREAK_ROOM_2,BREAK_ROOM_2_WINDOW_2,BREAK_ROOM_2_REFERENCEPOINT1,3.0834E-003
 Sky Daylight Factors,Intermediate Sky,01/01,BREAK_ROOM_2_DAYLIGHT,BREAK_ROOM_2,BREAK_ROOM_2_WINDOW_2,BREAK_ROOM_2_REFERENCEPOINT1,2.5343E-003
 Sky Daylight Factors,Overcast Sky,01/01,BREAK_ROOM_2_DAYLIGHT,BREAK_ROOM_2,BREAK_ROOM_2_WINDOW_2,BREAK_ROOM_2_REFERENCEPOINT1,1.8267E-003
 Sky Daylight Factors,Clear Sky,01/01,BREAK_ROOM_2_DAYLIGHT,BREAK_ROOM_2,BREAK_ROOM_2_WINDOW_3,BREAK_ROOM_2_REFERENCEPOINT1,3.4356E-004
 Sky Daylight Factors,Clear Turbid Sky,01/01,BREAK_ROOM_2_DAYLIGHT,BREAK_ROOM_2,BREAK_ROOM_2_WINDOW_3,BREAK_ROOM_2_REFERENCEPOINT1,3.0923E-004
 Sky Daylight Factors,Intermediate Sky,01/01,BREAK_ROOM_2_DAYLIGHT,BREAK_ROOM_2,BREAK_ROOM_2_WINDOW_3,BREAK_ROOM_2_REFERENCEPOINT1,3.1226E-004
 Sky Daylight Factors,Overcast Sky,01/01,BREAK_ROOM_2_DAYLIGHT,BREAK_ROOM_2,BREAK_ROOM_2_WINDOW_3,BREAK_ROOM_2_REFERENCEPOINT1,3.1287E-004
 Sky Daylight Factors,Clear Sky,01/01,BREAK_ROOM_2_DAYLIGHT,BREAK_ROOM_2,BREAK_ROOM_2_WINDOW_4,BREAK_ROOM_2_REFERENCEPOINT1,6.9831E-003
 Sky Daylight Factors,Clear Turbid Sky,01/01,BREAK_ROOM_2_DAYLIGHT,BREAK_ROOM_2,BREAK_ROOM_2_WINDOW_4,BREAK_ROOM_2_REFERENCEPOINT1,6.5442E-003
 Sky Daylight Factors,Intermediate Sky,01/01,BREAK_ROOM_2_DAYLIGHT,BREAK_ROOM_2,BREAK_ROOM_2_WINDOW_4,BREAK_ROOM_2_REFERENCEPOINT1,6.5396E-003
 Sky Daylight Factors,Overcast Sky,01/01,BREAK_ROOM_2_DAYLIGHT,BREAK_ROOM_2,BREAK_ROOM_2_WINDOW_4,BREAK_ROOM_2_REFERENCEPOINT1,5.5415E-003
 Sky Daylight Factors,Clear Sky,01/01,LOBBY_3_DAYLIGHT,LOBBY_3,LOBBY_3_WINDOW_1,LOBBY_3_REFERENCEPOINT1,6.6408E-003
 Sky Daylight Factors,Clear Turbid Sky,01/01,LOBBY_3_DAYLIGHT,LOBBY_3,LOBBY_3_WINDOW_1,LOBBY_3_REFERENCEPOINT1,7.3987E-003
 Sky Daylight Factors,Intermediate Sky,01/01,LOBBY_3_DAYLIGHT,LOBBY_3,LOBBY_3_WINDOW_1,LOBBY_3_REFERENCEPOINT1,4.7074E-003
 Sky Daylight Factors,Overcast Sky,01/01,LOBBY_3_DAYLIGHT,LOBBY_3,LOBBY_3_WINDOW_1,LOBBY_3_REFERENCEPOINT1,2.4360E-003
 Sky Daylight Factors,Clear Sky,01/01,LOBBY_3_DAYLIGHT,LOBBY_3,LOBBY_3_WINDOW_2,LOBBY_3_REFERENCEPOINT1,4.7364E-003
 Sky Daylight Factors,Clear Turbid Sky,01/01,LOBBY_3_DAYLIGHT,LOBBY_3,LOBBY_3_WINDOW_2,LOBBY_3_REFERENCEPOINT1,4.4369E-003
 Sky Daylight Factors,Intermediate Sky,01/01,LOBBY_3_DAYLIGHT,LOBBY_3,LOBBY_3_WINDOW_2,LOBBY_3_REFERENCEPOINT1,4.4688E-003
 Sky Daylight Factors,Overcast Sky,01/01,LOBBY_3_DAYLIGHT,LOBBY_3,LOBBY_3_WINDOW_2,LOBBY_3_REFERENCEPOINT1,3.8595E-003
 Sky Daylight Factors,Clear Sky,01/01,LOBBY_3_DAYLIGHT,LOBBY_3,LOBBY_3_WINDOW_3,LOBBY_3_REFERENCEPOINT1,3.8790E-003
 Sky Daylight Factors,Clear Turbid Sky,01/01,LOBBY_3_DAYLIGHT,LOBBY_3,LOBBY_3_WINDOW_3,LOBBY_3_REFERENCEPOINT1,3.1344E-003
 Sky Daylight Factors,Intermediate Sky,01/01,LOBBY_3_DAYLIGHT,LOBBY_3,LOBBY_3_WINDOW_3,LOBBY_3_REFERENCEPOINT1,2.9026E-003
 Sky Daylight Factors,Overcast Sky,01/01,LOBBY_3_DAYLIGHT,LOBBY_3,LOBBY_3_WINDOW_3,LOBBY_3_REFERENCEPOINT1,4.1962E-003
 Sky Daylight Factors,Clear Sky,01/01,LOBBY_3_DAYLIGHT,LOBBY_3,LOBBY_3_WINDOW_4,LOBBY_3_REFERENCEPOINT1,3.5411E-003
 Sky Daylight Factors,Clear Turbid Sky,01/01,LOBBY_3_DAYLIGHT,LOBBY_3,LOBBY_3_WINDOW_4,LOBBY_3_REFERENCEPOINT1,3.4374E-003
 Sky Daylight Factors,Intermediate Sky,01/01,LOBBY_3_DAYLIGHT,LOBBY_3,LOBBY_3_WINDOW_4,LOBBY_3_REFERENCEPOINT1,3.4181E-003
 Sky Daylight Factors,Overcast Sky,01/01,LOBBY_3_DAYLIGHT,LOBBY_3,LOBBY_3_WINDOW_4,LOBBY_3_REFERENCEPOINT1,2.8193E-003
 Sky Daylight Factors,Clear Sky,01/01,CONFERENCE_3_DAYLIGHT,CONFERENCE_3,CONFERENCE_3_WINDOW_1,CONFERENCE_3_REFERENCEPOINT1,1.6189E-003
 Sky Daylight Factors,Clear Turbid Sky,01/01,CONFERENCE_3_DAYLIGHT,CONFERENCE_3,CONFERENCE_3_WINDOW_1,CONFERENCE_3_REFERENCEPOINT1,1.7066E-003
 Sky Daylight Factors,Intermediate Sky,01/01,CONFERENCE_3_DAYLIGHT,CONFERENCE_3,CONFERENCE_3_WINDOW_1,CONFERENCE_3_REFERENCEPOINT1,1.2622E-003
 Sky Daylight Factors,Overcast Sky,01/01,CONFERENCE_3_DAYLIGHT,CONFERENCE_3,CONFERENCE_3_WINDOW_1,CONFERENCE_3_REFERENCEPOINT1,7.5548E-004
 Sky Daylight Factors,Clear Sky,01/01,CONFERENCE_3_DAYLIGHT,CONFERENCE_3,CONFERENCE_3_WINDOW_2,CONFERENCE_3_REFERENCEPOINT1,5.9341E-003
 Sky Daylight Factors,Clear Turbid Sky,01/01,CONFERENCE_3_DAYLIGHT,CONFERENCE_3,CONFERENCE_3_WINDOW_2,CONFERENCE_3_REFERENCEPOINT1,5.5452E-003
 Sky Daylight Factors,Intermediate Sky,01/01,CONFERENCE_3_DAYLIGHT,CONFERENCE_3,CONFERENCE_3_WINDOW_2,CONFERENCE_3_REFERENCEPOINT1,5.5866E-003
 Sky Daylight Factors,Overcast Sky,01/01,CONFERENCE_3_DAYLIGHT,CONFERENCE_3,CONFERENCE_3_WINDOW_2,CONFERENCE_3_REFERENCEPOINT1,4.7955E-003
 Sky Daylight Factors,Clear Sky,01/01,CONFERENCE_3_DAYLIGHT,CONFERENCE_3,CONFERENCE_3_WINDOW_3,CONFERENCE_3_REFERENCEPOINT1,3.7100E-003
 Sky Daylight Factors,Clear Turbid Sky,01/01,CONFERENCE_3_DAYLIGHT,CONFERENCE_3,CONFERENCE_3_WINDOW_3,CONFERENCE_3_REFERENCEPOINT1,3.0225E-003
 Sky Daylight Factors,Intermediate Sky,01/01,CONFERENCE_3_DAYLIGHT,CONFERENCE_3,CONFERENCE_3_WINDOW_3,CONFERENCE_3_REFERENCEPOINT1,2.4412E-003
 Sky Daylight Factors,Overcast Sky,01/01,CONFERENCE_3_DAYLIGHT,CONFERENCE_3,CONFERENCE_3_WINDOW_3,CONFERENCE_3_REFERENCEPOINT1,3.0183E-003
 Sky Daylight Factors,Clear Sky,01/01,CONFERENCE_3_DAYLIGHT,CONFERENCE_3,CONFERENCE_3_WINDOW_4,CONFERENCE_3_REFERENCEPOINT1,4.7056E-004
 Sky Daylight Factors,Clear Turbid Sky,01/01,CONFERENCE_3_DAYLIGHT,CONFERENCE_3,CONFERENCE_3_WINDOW_4,CONFERENCE_3_REFERENCEPOINT1,4.5949E-004
 Sky Daylight Factors,Intermediate Sky,01/01,CONFERENCE_3_DAYLIGHT,CONFERENCE_3,CONFERENCE_3_WINDOW_4,CONFERENCE_3_REFERENCEPOINT1,4.4386E-004
 Sky Daylight Factors,Overcast Sky,01/01,CONFERENCE_3_DAYLIGHT,CONFERENCE_3,CONFERENCE_3_WINDOW_4,CONFERENCE_3_REFERENCEPOINT1,4.4980E-004
 Sky Daylight Factors,Clear Sky,01/01,OFFICE_OPEN_4_DAYLIGHT,OFFICE_OPEN_4,OFFICE_OPEN_4_WINDOW_1,OFFICE_OPEN_4_REFERENCEPOINT1,3.0570E-003
 Sky Daylight Factors,Clear Turbid Sky,01/01,OFFICE_OPEN_4_DAYLIGHT,OFFICE_OPEN_4,OFFICE_OPEN_4_WINDOW_1,OFFICE_OPEN_4_REFERENCEPOINT1,3.4127E-003
 Sky Daylight Factors,Intermediate Sky,01/01,OFFICE_OPEN_4_DAYLIGHT,OFFICE_OPEN_4,OFFICE_OPEN_4_WINDOW_1,OFFICE_OPEN_4_REFERENCEPOINT1,2.1496E-003
 Sky Daylight Factors,Overcast Sky,01/01,OFFICE_OPEN_4_DAYLIGHT,OFFICE_OPEN_4,OFFICE_OPEN_4_WINDOW_1,OFFICE_OPEN_4_REFERENCEPOINT1,1.0835E-003
 Sky Daylight Factors,Clear Sky,01/01,OFFICE_OPEN_4_DAYLIGHT,OFFICE_OPEN_4,OFFICE_OPEN_4_WINDOW_2,OFFICE_OPEN_4_REFERENCEPOINT1,3.6773E-003
 Sky Daylight Factors,Clear Turbid Sky,01/01,OFFICE_OPEN_4_DAYLIGHT,OFFICE_OPEN_4,OFFICE_OPEN_4_WINDOW_2,OFFICE_OPEN_4_REFERENCEPOINT1,3.4326E-003
 Sky Daylight Factors,Intermediate Sky,01/01,OFFICE_OPEN_4_DAYLIGHT,OFFICE_OPEN_4,OFFICE_OPEN_4_WINDOW_2,OFFICE_OPEN_4_REFERENCEPOINT1,3.4587E-003
 Sky Daylight Factors,Overcast Sky,01/01,OFFICE_OPEN_4_DAYLIGHT,OFFICE_OPEN_4,OFFICE_OPEN_4_WINDOW_2,OFFICE_OPEN_4_REFERENCEPOINT1,2.9610E-003
 Sky Daylight Factors,Clear Sky,01/01,OFFICE_OPEN_4_DAYLIGHT,OFFICE_OPEN_4,OFFICE_OPEN_4_WINDOW_3,OFFICE_OPEN_4_REFERENCEPOINT1,2.2146E-003
 Sky Daylight Factors,Clear Turbid Sky,01/01,OFFICE_OPEN_4_DAYLIGHT,OFFICE_OPEN_4,OFFICE_OPEN_4_WINDOW_3,OFFICE_OPEN_4_REFERENCEPOINT1,1.8010E-003
 Sky Daylight Factors,Intermediate Sky,01/01,OFFICE_OPEN_4_DAYLIGHT,OFFICE_OPEN_4,OFFICE_OPEN_4_WINDOW_3,OFFICE_OPEN_4_REFERENCEPOINT1,1.6147E-003
 Sky Daylight Factors,Overcast Sky,01/01,OFFICE_OPEN_4_DAYLIGHT,OFFICE_OPEN_4,OFFICE_OPEN_4_WINDOW_3,OFFICE_OPEN_4_REFERENCEPOINT1,2.2352E-003
 Sky Daylight Factors,Clear Sky,01/01,OFFICE_OPEN_4_DAYLIGHT,OFFICE_OPEN_4,OFFICE_OPEN_4_WINDOW_4,OFFICE_OPEN_4_REFERENCEPOINT1,3.8560E-003
 Sky Daylight Factors,Clear Turbid Sky,01/01,OFFICE_OPEN_4_DAYLIGHT,OFFICE_OPEN_4,OFFICE_OPEN_4_WINDOW_4,OFFICE_OPEN_4_REFERENCEPOINT1,3.6169E-003
 Sky Daylight Factors,Intermediate Sky,01/01,OFFICE_OPEN_4_DAYLIGHT,OFFICE_OPEN_4,OFFICE_OPEN_4_WINDOW_4,OFFICE_OPEN_4_REFERENCEPOINT1,3.6322E-003
 Sky Daylight Factors,Overcast Sky,01/01,OFFICE_OPEN_4_DAYLIGHT,OFFICE_OPEN_4,OFFICE_OPEN_4_WINDOW_4,OFFICE_OPEN_4_REFERENCEPOINT1,3.1185E-003
Environment:WarmupDays,  8
! <Warmup Convergence Information>,Zone Name,Environment Type/Name,Average Warmup Temperature Difference {deltaC},Std Dev Warmup Temperature Difference {deltaC},Max Temperature Pass/Fail Convergence,Min Temperature Pass/Fail Convergence,Average Warmup Load Difference {W},Std Dev Warmup Load Difference {W},Heating Load Pass/Fail Convergence,Cooling Load Pass/Fail Convergence
 Warmup Convergence Information,CONFERENCE_0,RunPeriod: YEAR ROUND RUN PERIOD,8.2453894687E-002,9.5985979624E-002,Pass,Pass,8.5798610995E-003,1.0177434079E-002,Pass,Pass
 Warmup Convergence Information,OFFICE_OPEN_0,RunPeriod: YEAR ROUND RUN PERIOD,5.9258926499E-002,7.0770828019E-002,Pass,Pass,6.6695056997E-003,8.0902780745E-003,Pass,Pass
 Warmup Convergence Information,OFFICE_PRIVATE_0,RunPeriod: YEAR ROUND RUN PERIOD,0.1159922101,0.1347056928,Pass,Pass,1.0914250645E-002,1.2914135168E-002,Pass,Pass
 Warmup Convergence Information,BREAK_ROOM_1,RunPeriod: YEAR ROUND RUN PERIOD,0.1046387482,0.1224162461,Pass,Pass,1.0185500187E-002,1.2159101362E-002,Pass,Pass
 Warmup Convergence Information,OFFICE_PRIVATE_1,RunPeriod: YEAR ROUND RUN PERIOD,0.1569939984,0.1817018188,Pass,Pass,1.3249264273E-002,1.5978511808E-002,Pass,Pass
 Warmup Convergence Information,STORAGE_1,RunPeriod: YEAR ROUND RUN PERIOD,0.1213896572,0.1404413095,Pass,Pass,1.0330432216E-002,1.2208265486E-002,Pass,Pass
 Warmup Convergence Information,CONFERENCE_2,RunPeriod: YEAR ROUND RUN PERIOD,8.2480318726E-002,0.1028290950,Pass,Pass,7.5647776667E-003,9.8228642731E-003,Pass,Pass
 Warmup Convergence Information,BREAK_ROOM_2,RunPeriod: YEAR ROUND RUN PERIOD,0.1098071709,0.1266782539,Pass,Pass,1.0468618706E-002,1.2343997355E-002,Pass,Pass
 Warmup Convergence Information,STORAGE_2,RunPeriod: YEAR ROUND RUN PERIOD,0.1296989929,0.1496753906,Pass,Pass,1.0777601138E-002,1.2705971531E-002,Pass,Pass
 Warmup Convergence Information,LOBBY_3,RunPeriod: YEAR ROUND RUN PERIOD,7.5026645548E-002,8.2847992640E-002,Pass,Pass,7.6502812609E-003,8.5333057789E-003,Pass,Pass
 Warmup Convergence Information,CONFERENCE_3,RunPeriod: YEAR ROUND RUN PERIOD,8.3438333210E-002,9.6220429893E-002,Pass,Pass,8.0938344576E-003,9.5090292996E-003,Pass,Pass
 Warmup Convergence Information,MECHANICAL_4,RunPeriod: YEAR ROUND RUN PERIOD,0.1122520701,0.1293011589,Pass,Pass,9.5674514512E-003,1.1217041971E-002,Pass,Pass
 Warmup Convergence Information,OFFICE_OPEN_4,RunPeriod: YEAR ROUND RUN PERIOD,3.7021602514E-002,4.3569918329E-002,Pass,Pass,4.5830078174E-003,5.4595296243E-003,Pass,Pass
 Warmup Convergence Information,STORAGE_4,RunPeriod: YEAR ROUND RUN PERIOD,0.2003164079,0.2133934096,Pass,Pass,1.5745331657E-002,1.7276922252E-002,Pass,Pass
! <Program Control Information:Threads/Parallel Sims>, Threading Supported,Maximum Number of Threads, Env Set Threads (OMP_NUM_THREADS), EP Env Set Threads (EP_OMP_NUM_THREADS), IDF Set Threads, Number of Threads Used (Interior Radiant Exchange), Number Nominal Surfaces, Number Parallel Sims
Program Control:Threads/Parallel Sims, No,1, N/A, N/A, N/A, N/A, N/A, N/A
End of Data
