Program Version,EnergyPlus, Version 24.2.0-94a887817b, YMD=2025.11.01 22:56,
   ** Severe  ** Line: 5182 Index: 0 - Object contains more field values than maximum number of IDD fields and is not extensible.
   ** Severe  ** Line: 5182 Index: 0 - Error parsing "DesignSpecification:OutdoorAir". Error in following line.
   ** Severe  ** ~~~   Yes,                                    !- Demand Controlled Ventilation Typ
   ** Severe  ** Line: 5182 Index: 5 - "Yes" is not a valid Object Type.
   ** Severe  ** Line: 5456 Index: 0 - Object contains more field values than maximum number of IDD fields and is not extensible.
   ** Severe  ** Line: 5456 Index: 0 - Error parsing "DesignSpecification:OutdoorAir". Error in following line.
   ** Severe  ** ~~~   Yes,                                    !- Demand Controlled Ventilation Typ
   ** Severe  ** Line: 5456 Index: 5 - "Yes" is not a valid Object Type.
   ** Severe  ** Line: 5730 Index: 0 - Object contains more field values than maximum number of IDD fields and is not extensible.
   ** Severe  ** Line: 5730 Index: 0 - Error parsing "DesignSpecification:OutdoorAir". Error in following line.
   ** Severe  ** ~~~   Yes,                                    !- Demand Controlled Ventilation Typ
   ** Severe  ** Line: 5730 Index: 5 - "Yes" is not a valid Object Type.
   ** Severe  ** Line: 6004 Index: 0 - Object contains more field values than maximum number of IDD fields and is not extensible.
   ** Severe  ** Line: 6004 Index: 0 - Error parsing "DesignSpecification:OutdoorAir". Error in following line.
   ** Severe  ** ~~~   Yes,                                    !- Demand Controlled Ventilation Typ
   ** Severe  ** Line: 6004 Index: 5 - "Yes" is not a valid Object Type.
   ** Severe  ** Line: 6278 Index: 0 - Object contains more field values than maximum number of IDD fields and is not extensible.
   ** Severe  ** Line: 6278 Index: 0 - Error parsing "DesignSpecification:OutdoorAir". Error in following line.
   ** Severe  ** ~~~   Yes,                                    !- Demand Controlled Ventilation Typ
   ** Severe  ** Line: 6278 Index: 5 - "Yes" is not a valid Object Type.
   ** Severe  ** Line: 6552 Index: 0 - Object contains more field values than maximum number of IDD fields and is not extensible.
   ** Severe  ** Line: 6552 Index: 0 - Error parsing "DesignSpecification:OutdoorAir". Error in following line.
   ** Severe  ** ~~~   Yes,                                    !- Demand Controlled Ventilation Typ
   ** Severe  ** Line: 6552 Index: 5 - "Yes" is not a valid Object Type.
   ** Severe  ** Line: 6826 Index: 0 - Object contains more field values than maximum number of IDD fields and is not extensible.
   ** Severe  ** Line: 6826 Index: 0 - Error parsing "DesignSpecification:OutdoorAir". Error in following line.
   ** Severe  ** ~~~   Yes,                                    !- Demand Controlled Ventilation Typ
   ** Severe  ** Line: 6826 Index: 5 - "Yes" is not a valid Object Type.
   ** Severe  ** Line: 7100 Index: 0 - Object contains more field values than maximum number of IDD fields and is not extensible.
   ** Severe  ** Line: 7100 Index: 0 - Error parsing "DesignSpecification:OutdoorAir". Error in following line.
   ** Severe  ** ~~~   Yes,                                    !- Demand Controlled Ventilation Typ
   ** Severe  ** Line: 7100 Index: 5 - "Yes" is not a valid Object Type.
   ** Severe  ** Line: 7374 Index: 0 - Object contains more field values than maximum number of IDD fields and is not extensible.
   ** Severe  ** Line: 7374 Index: 0 - Error parsing "DesignSpecification:OutdoorAir". Error in following line.
   ** Severe  ** ~~~   Yes,                                    !- Demand Controlled Ventilation Typ
   ** Severe  ** Line: 7374 Index: 5 - "Yes" is not a valid Object Type.
   ** Severe  ** Line: 7648 Index: 0 - Object contains more field values than maximum number of IDD fields and is not extensible.
   ** Severe  ** Line: 7648 Index: 0 - Error parsing "DesignSpecification:OutdoorAir". Error in following line.
   ** Severe  ** ~~~   Yes,                                    !- Demand Controlled Ventilation Typ
   ** Severe  ** Line: 7648 Index: 5 - "Yes" is not a valid Object Type.
   ** Severe  ** Line: 7922 Index: 0 - Object contains more field values than maximum number of IDD fields and is not extensible.
   ** Severe  ** Line: 7922 Index: 0 - Error parsing "DesignSpecification:OutdoorAir". Error in following line.
   ** Severe  ** ~~~   Yes,                                    !- Demand Controlled Ventilation Typ
   ** Severe  ** Line: 7922 Index: 5 - "Yes" is not a valid Object Type.
   ** Severe  ** Line: 8196 Index: 0 - Object contains more field values than maximum number of IDD fields and is not extensible.
   ** Severe  ** Line: 8196 Index: 0 - Error parsing "DesignSpecification:OutdoorAir". Error in following line.
   ** Severe  ** ~~~   Yes,                                    !- Demand Controlled Ventilation Typ
   ** Severe  ** Line: 8196 Index: 5 - "Yes" is not a valid Object Type.
   ** Severe  ** Line: 8470 Index: 0 - Object contains more field values than maximum number of IDD fields and is not extensible.
   ** Severe  ** Line: 8470 Index: 0 - Error parsing "DesignSpecification:OutdoorAir". Error in following line.
   ** Severe  ** ~~~   Yes,                                    !- Demand Controlled Ventilation Typ
   ** Severe  ** Line: 8470 Index: 5 - "Yes" is not a valid Object Type.
   ** Severe  ** Line: 8744 Index: 0 - Object contains more field values than maximum number of IDD fields and is not extensible.
   ** Severe  ** Line: 8744 Index: 0 - Error parsing "DesignSpecification:OutdoorAir". Error in following line.
   ** Severe  ** ~~~   Yes,                                    !- Demand Controlled Ventilation Typ
   ** Severe  ** Line: 8744 Index: 5 - "Yes" is not a valid Object Type.
   ** Severe  ** Line: 8905 Index: 16 - "Through: 12/31" is not a valid Object Type.
   ** Severe  ** Line: 8999 Index: 16 - "Through: 12/31" is not a valid Object Type.
   ** Severe  ** Line: 9069 Index: 16 - "Through: 12/31" is not a valid Object Type.
   ** Severe  ** Line: 9139 Index: 16 - "Through: 12/31" is not a valid Object Type.
   ** Severe  ** Line: 9233 Index: 16 - "Through: 12/31" is not a valid Object Type.
   ** Severe  ** Line: 9303 Index: 16 - "Through: 12/31" is not a valid Object Type.
   ** Severe  ** <root>[Controller:MechanicalVentilation][break_room_1_MechVent][demand_controlled_ventilation] - "Standard62.1VentilationRateProcedure" - Failed to match against any enum values.
   ** Severe  ** <root>[Controller:OutdoorAir][break_room_1_z4_OAController][economizer_control_action_type] - "MinimumLimit" - Failed to match against any enum values.
   ** Severe  ** <root>[Controller:OutdoorAir][break_room_1_z4_OAController][economizer_maximum_limit_dewpoint_temperature] - Value type "string" for input "DifferentialEnthalpy" not permitted by 'type' constraint.
   ** Severe  ** <root>[Controller:OutdoorAir][break_room_1_z4_OAController][lockout_type] - "66000" - Failed to match against any enum values.
   **  Fatal  ** Errors occurred on processing input file. Preceding condition(s) cause termination.
   ...Summary of Errors that led to program termination:
   ..... Reference severe error count=66
   ..... Last severe error=<root>[Controller:OutdoorAir][break_room_1_z4_OAController][lockout_type] - "66000" - Failed to match against any enum values.
   ************* Warning:  Node connection errors not checked - most system input has not been read (see previous warning).
   ************* Fatal error -- final processing.  Program exited before simulations began.  See previous error messages.
   ************* EnergyPlus Warmup Error Summary. During Warmup: 0 Warning; 0 Severe Errors.
   ************* EnergyPlus Sizing Error Summary. During Sizing: 0 Warning; 0 Severe Errors.
   ************* EnergyPlus Terminated--Fatal Error Detected. 0 Warning; 66 Severe Errors; Elapsed Time=00hr 00min  0.08sec
