Program Version,EnergyPlus, Version 24.2.0-94a887817b, YMD=2025.11.03 23:59
