Program Version,EnergyPlus, Version 24.2.0-94a887817b, YMD=2025.11.02 21:51,
   ** Warning ** Site:GroundTemperature:BuildingSurface: Some values fall outside the range of 15-25C.
   **   ~~~   ** These values may be inappropriate.  Please consult the Input Output Reference for more details.
   ** Warning ** Weather file location will be used rather than entered (IDF) Location object.
   **   ~~~   ** ..Location object=SITE
   **   ~~~   ** ..Weather File Location=San Francisco Intl Ap CA USA TMY3 WMO#=724940
   **   ~~~   ** ..due to location differences, Latitude difference=[0.17] degrees, Longitude difference=[5.20E-003] degrees.
   **   ~~~   ** ..Time Zone difference=[0.0] hour(s), Elevation difference=[80.00] percent, [8.00] meters.
   ** Warning ** ProcessScheduleInput: Schedule:Compact="BREAK_ROOM_LIGHTING" has missing day types in Through=12/31
   **   ~~~   ** Last "For" field=FOR: WEEKENDS
   **   ~~~   ** Missing day types="Holiday","SummerDesignDay","WinterDesignDay","CustomDay1","CustomDay2"
   **   ~~~   ** Missing day types will have 0.0 as Schedule Values
   ** Warning ** ProcessScheduleInput: Schedule:Compact="BREAK_ROOM_EQUIPMENT" has missing day types in Through=12/31
   **   ~~~   ** Last "For" field=FOR: WEEKENDS
   **   ~~~   ** Missing day types="Holiday","SummerDesignDay","WinterDesignDay","CustomDay1","CustomDay2"
   **   ~~~   ** Missing day types will have 0.0 as Schedule Values
   ** Warning ** ProcessScheduleInput: Schedule:Compact="LOBBY_LIGHTING" has missing day types in Through=12/31
   **   ~~~   ** Last "For" field=FOR: WEEKENDS
   **   ~~~   ** Missing day types="Holiday","SummerDesignDay","WinterDesignDay","CustomDay1","CustomDay2"
   **   ~~~   ** Missing day types will have 0.0 as Schedule Values
   ** Warning ** ProcessScheduleInput: Schedule:Compact="LOBBY_EQUIPMENT" has missing day types in Through=12/31
   **   ~~~   ** Last "For" field=FOR: WEEKENDS
   **   ~~~   ** Missing day types="Holiday","SummerDesignDay","WinterDesignDay","CustomDay1","CustomDay2"
   **   ~~~   ** Missing day types will have 0.0 as Schedule Values
   ** Warning ** ProcessScheduleInput: Schedule:Compact="MECHANICAL_LIGHTING" has missing day types in Through=12/31
   **   ~~~   ** Last "For" field=FOR: WEEKENDS
   **   ~~~   ** Missing day types="Holiday","SummerDesignDay","WinterDesignDay","CustomDay1","CustomDay2"
   **   ~~~   ** Missing day types will have 0.0 as Schedule Values
   ** Warning ** ProcessScheduleInput: Schedule:Compact="MECHANICAL_EQUIPMENT" has missing day types in Through=12/31
   **   ~~~   ** Last "For" field=FOR: WEEKENDS
   **   ~~~   ** Missing day types="Holiday","SummerDesignDay","WinterDesignDay","CustomDay1","CustomDay2"
   **   ~~~   ** Missing day types will have 0.0 as Schedule Values
   ** Warning ** ProcessScheduleInput: Schedule:Compact="OFFICE_OPEN_OCCUPANCY" has missing day types in Through=12/31
   **   ~~~   ** Last "For" field=FOR: WEEKENDS
   **   ~~~   ** Missing day types="Holiday","SummerDesignDay","WinterDesignDay","CustomDay1","CustomDay2"
   **   ~~~   ** Missing day types will have 0.0 as Schedule Values
   ** Warning ** ProcessScheduleInput: Schedule:Compact="OFFICE_OPEN_LIGHTING" has missing day types in Through=12/31
   **   ~~~   ** Last "For" field=FOR: WEEKENDS
   **   ~~~   ** Missing day types="Holiday","SummerDesignDay","WinterDesignDay","CustomDay1","CustomDay2"
   **   ~~~   ** Missing day types will have 0.0 as Schedule Values
   ** Warning ** ProcessScheduleInput: Schedule:Compact="OFFICE_OPEN_EQUIPMENT" has missing day types in Through=12/31
   **   ~~~   ** Last "For" field=FOR: WEEKENDS
   **   ~~~   ** Missing day types="Holiday","SummerDesignDay","WinterDesignDay","CustomDay1","CustomDay2"
   **   ~~~   ** Missing day types will have 0.0 as Schedule Values
   ** Warning ** ProcessScheduleInput: Schedule:Compact="STORAGE_LIGHTING" has missing day types in Through=12/31
   **   ~~~   ** Last "For" field=FOR: WEEKENDS
   **   ~~~   ** Missing day types="Holiday","SummerDesignDay","WinterDesignDay","CustomDay1","CustomDay2"
   **   ~~~   ** Missing day types will have 0.0 as Schedule Values
   ** Warning ** ProcessScheduleInput: Schedule:Compact="STORAGE_EQUIPMENT" has missing day types in Through=12/31
   **   ~~~   ** Last "For" field=FOR: WEEKENDS
   **   ~~~   ** Missing day types="Holiday","SummerDesignDay","WinterDesignDay","CustomDay1","CustomDay2"
   **   ~~~   ** Missing day types will have 0.0 as Schedule Values
   ** Warning ** No Glare Calculation Daylighting Reference Point Name provided for object named: BREAK_ROOM_0_DAYLIGHT
   **   ~~~   ** No glare calculation performed, and the simulation continues.
   ** Warning ** GetDaylightingControls: Fraction of zone or space controlled by the Daylighting reference points is < 1.0.
   **   ~~~   ** ..discovered in Daylighting:Controls="BREAK_ROOM_0_DAYLIGHT", only 0.900 of the zone or space is controlled.
   ** Warning ** No Glare Calculation Daylighting Reference Point Name provided for object named: OFFICE_PRIVATE_0_DAYLIGHT
   **   ~~~   ** No glare calculation performed, and the simulation continues.
   ** Warning ** GetDaylightingControls: Fraction of zone or space controlled by the Daylighting reference points is < 1.0.
   **   ~~~   ** ..discovered in Daylighting:Controls="OFFICE_PRIVATE_0_DAYLIGHT", only 0.900 of the zone or space is controlled.
   ** Warning ** No Glare Calculation Daylighting Reference Point Name provided for object named: BREAK_ROOM_1_DAYLIGHT
   **   ~~~   ** No glare calculation performed, and the simulation continues.
   ** Warning ** GetDaylightingControls: Fraction of zone or space controlled by the Daylighting reference points is < 1.0.
   **   ~~~   ** ..discovered in Daylighting:Controls="BREAK_ROOM_1_DAYLIGHT", only 0.900 of the zone or space is controlled.
   ** Warning ** No Glare Calculation Daylighting Reference Point Name provided for object named: OFFICE_PRIVATE_1_DAYLIGHT
   **   ~~~   ** No glare calculation performed, and the simulation continues.
   ** Warning ** GetDaylightingControls: Fraction of zone or space controlled by the Daylighting reference points is < 1.0.
   **   ~~~   ** ..discovered in Daylighting:Controls="OFFICE_PRIVATE_1_DAYLIGHT", only 0.900 of the zone or space is controlled.
   ** Warning ** No Glare Calculation Daylighting Reference Point Name provided for object named: LOBBY_2_DAYLIGHT
   **   ~~~   ** No glare calculation performed, and the simulation continues.
   ** Warning ** GetDaylightingControls: Fraction of zone or space controlled by the Daylighting reference points is < 1.0.
   **   ~~~   ** ..discovered in Daylighting:Controls="LOBBY_2_DAYLIGHT", only 0.900 of the zone or space is controlled.
   ** Warning ** GeometryTransformForDaylighting: Reference point X Value outside Zone Min/Max X, Zone=BREAK_ROOM_0
   **   ~~~   ** ...X Reference Point= 2.00, Zone Minimum X= -17.94, Zone Maximum X= -11.56
   **   ~~~   ** ...X Reference Distance Outside MinimumX= 13.5609 m.
   ** Warning ** GeometryTransformForDaylighting: Reference point Y Value outside Zone Min/Max Y, Zone=BREAK_ROOM_0
   **   ~~~   ** ...Y Reference Point= 2.00, Zone Minimum Y= -59.56, Zone Maximum Y= -49.40
   **   ~~~   ** ...Y Reference Distance Outside MinimumY= 51.3996 m.
   ** Warning ** GeometryTransformForDaylighting: Reference point X Value outside Zone Min/Max X, Zone=OFFICE_PRIVATE_0
   **   ~~~   ** ...X Reference Point= 2.00, Zone Minimum X= -18.60, Zone Maximum X= -15.21
   **   ~~~   ** ...X Reference Distance Outside MinimumX= 17.2087 m.
   ** Warning ** GeometryTransformForDaylighting: Reference point Y Value outside Zone Min/Max Y, Zone=OFFICE_PRIVATE_0
   **   ~~~   ** ...Y Reference Point= 2.00, Zone Minimum Y= -32.20, Zone Maximum Y= -26.74
   **   ~~~   ** ...Y Reference Distance Outside MinimumY= 28.7399 m.
   ** Warning ** GeometryTransformForDaylighting: Reference point X Value outside Zone Min/Max X, Zone=BREAK_ROOM_1
   **   ~~~   ** ...X Reference Point= 2.00, Zone Minimum X= -22.34, Zone Maximum X= -16.49
   **   ~~~   ** ...X Reference Distance Outside MinimumX= 18.4895 m.
   ** Warning ** GeometryTransformForDaylighting: Reference point Y Value outside Zone Min/Max Y, Zone=BREAK_ROOM_1
   **   ~~~   ** ...Y Reference Point= 2.00, Zone Minimum Y= -86.16, Zone Maximum Y= -74.91
   **   ~~~   ** ...Y Reference Distance Outside MinimumY= 76.9095 m.
   ** Warning ** GeometryTransformForDaylighting: Reference point Z Value outside Zone Min/Max Z, Zone=BREAK_ROOM_1
   **   ~~~   ** ...Z Reference Point= 0.80, Zone Minimum Z= 3.00, Zone Maximum Z= 6.00
   **   ~~~   ** ...Z Reference Distance Outside MinimumZ= 2.2000 m.
   ** Warning ** GeometryTransformForDaylighting: Reference point X Value outside Zone Min/Max X, Zone=OFFICE_PRIVATE_1
   **   ~~~   ** ...X Reference Point= 2.00, Zone Minimum X= -7.07, Zone Maximum X= -2.20
   **   ~~~   ** ...X Reference Distance Outside MinimumX= 4.1956 m.
   ** Warning ** GeometryTransformForDaylighting: Reference point Y Value outside Zone Min/Max Y, Zone=OFFICE_PRIVATE_1
   **   ~~~   ** ...Y Reference Point= 2.00, Zone Minimum Y= -49.12, Zone Maximum Y= -41.03
   **   ~~~   ** ...Y Reference Distance Outside MinimumY= 43.0268 m.
   ** Warning ** GeometryTransformForDaylighting: Reference point Z Value outside Zone Min/Max Z, Zone=OFFICE_PRIVATE_1
   **   ~~~   ** ...Z Reference Point= 0.80, Zone Minimum Z= 3.00, Zone Maximum Z= 6.00
   **   ~~~   ** ...Z Reference Distance Outside MinimumZ= 2.2000 m.
   ** Warning ** GeometryTransformForDaylighting: Reference point X Value outside Zone Min/Max X, Zone=LOBBY_2
   **   ~~~   ** ...X Reference Point= 2.00, Zone Minimum X= 12.77, Zone Maximum X= 22.21
   **   ~~~   ** ...X Reference Distance Outside MinimumX= 10.7672 m.
   ** Warning ** GeometryTransformForDaylighting: Reference point Y Value outside Zone Min/Max Y, Zone=LOBBY_2
   **   ~~~   ** ...Y Reference Point= 2.00, Zone Minimum Y= -78.76, Zone Maximum Y= -63.07
   **   ~~~   ** ...Y Reference Distance Outside MinimumY= 65.0724 m.
   ** Warning ** GeometryTransformForDaylighting: Reference point Z Value outside Zone Min/Max Z, Zone=LOBBY_2
   **   ~~~   ** ...Z Reference Point= 0.80, Zone Minimum Z= 6.00, Zone Maximum Z= 9.00
   **   ~~~   ** ...Z Reference Distance Outside MinimumZ= 5.2000 m.
   ** Warning ** Since Damper Heating Action = NORMAL, input for Maximum Flow per Zone Floor Area During Reheat will be ignored.
   **   ~~~   ** Occurs in AirTerminal:SingleDuct:VAV:Reheat = BREAK_ROOM_0_Z1_VAVTERMINAL
   ** Warning ** Since Damper Heating Action = NORMAL, input for Maximum Flow Fraction During Reheat will be ignored.
   **   ~~~   ** Occurs in AirTerminal:SingleDuct:VAV:Reheat = BREAK_ROOM_0_Z1_VAVTERMINAL
   ** Warning ** Since Damper Heating Action = NORMAL, input for Maximum Flow per Zone Floor Area During Reheat will be ignored.
   **   ~~~   ** Occurs in AirTerminal:SingleDuct:VAV:Reheat = OFFICE_PRIVATE_0_Z2_VAVTERMINAL
   ** Warning ** Since Damper Heating Action = NORMAL, input for Maximum Flow Fraction During Reheat will be ignored.
   **   ~~~   ** Occurs in AirTerminal:SingleDuct:VAV:Reheat = OFFICE_PRIVATE_0_Z2_VAVTERMINAL
   ** Warning ** Since Damper Heating Action = NORMAL, input for Maximum Flow per Zone Floor Area During Reheat will be ignored.
   **   ~~~   ** Occurs in AirTerminal:SingleDuct:VAV:Reheat = STORAGE_0_Z3_VAVTERMINAL
   ** Warning ** Since Damper Heating Action = NORMAL, input for Maximum Flow Fraction During Reheat will be ignored.
   **   ~~~   ** Occurs in AirTerminal:SingleDuct:VAV:Reheat = STORAGE_0_Z3_VAVTERMINAL
   ** Warning ** Since Damper Heating Action = NORMAL, input for Maximum Flow per Zone Floor Area During Reheat will be ignored.
   **   ~~~   ** Occurs in AirTerminal:SingleDuct:VAV:Reheat = BREAK_ROOM_1_Z4_VAVTERMINAL
   ** Warning ** Since Damper Heating Action = NORMAL, input for Maximum Flow Fraction During Reheat will be ignored.
   **   ~~~   ** Occurs in AirTerminal:SingleDuct:VAV:Reheat = BREAK_ROOM_1_Z4_VAVTERMINAL
   ** Warning ** Since Damper Heating Action = NORMAL, input for Maximum Flow per Zone Floor Area During Reheat will be ignored.
   **   ~~~   ** Occurs in AirTerminal:SingleDuct:VAV:Reheat = OFFICE_PRIVATE_1_Z5_VAVTERMINAL
   ** Warning ** Since Damper Heating Action = NORMAL, input for Maximum Flow Fraction During Reheat will be ignored.
   **   ~~~   ** Occurs in AirTerminal:SingleDuct:VAV:Reheat = OFFICE_PRIVATE_1_Z5_VAVTERMINAL
   ** Warning ** Since Damper Heating Action = NORMAL, input for Maximum Flow per Zone Floor Area During Reheat will be ignored.
   **   ~~~   ** Occurs in AirTerminal:SingleDuct:VAV:Reheat = STORAGE_1_Z6_VAVTERMINAL
   ** Warning ** Since Damper Heating Action = NORMAL, input for Maximum Flow Fraction During Reheat will be ignored.
   **   ~~~   ** Occurs in AirTerminal:SingleDuct:VAV:Reheat = STORAGE_1_Z6_VAVTERMINAL
   ** Warning ** Since Damper Heating Action = NORMAL, input for Maximum Flow per Zone Floor Area During Reheat will be ignored.
   **   ~~~   ** Occurs in AirTerminal:SingleDuct:VAV:Reheat = LOBBY_2_Z7_VAVTERMINAL
   ** Warning ** Since Damper Heating Action = NORMAL, input for Maximum Flow Fraction During Reheat will be ignored.
   **   ~~~   ** Occurs in AirTerminal:SingleDuct:VAV:Reheat = LOBBY_2_Z7_VAVTERMINAL
   ** Warning ** Since Damper Heating Action = NORMAL, input for Maximum Flow per Zone Floor Area During Reheat will be ignored.
   **   ~~~   ** Occurs in AirTerminal:SingleDuct:VAV:Reheat = MECHANICAL_2_Z8_VAVTERMINAL
   ** Warning ** Since Damper Heating Action = NORMAL, input for Maximum Flow Fraction During Reheat will be ignored.
   **   ~~~   ** Occurs in AirTerminal:SingleDuct:VAV:Reheat = MECHANICAL_2_Z8_VAVTERMINAL
   ** Warning ** GetDXCoils: Coil:Cooling:DX:SingleSpeed="BREAK_ROOM_0_Z1_COOLINGCOILDX" curve values
   **   ~~~   ** ... Energy Input Ratio Function of Temperature Curve Name = COOL-EIR-FT output is not equal to 1.0 (+ or - 10%) at rated conditions.
   **   ~~~   ** ... Curve output at rated conditions = -3.341E-002
   ** Warning ** GetDXCoils: Coil:Cooling:DX:SingleSpeed="OFFICE_PRIVATE_0_Z2_COOLINGCOILDX" curve values
   **   ~~~   ** ... Energy Input Ratio Function of Temperature Curve Name = COOL-EIR-FT output is not equal to 1.0 (+ or - 10%) at rated conditions.
   **   ~~~   ** ... Curve output at rated conditions = -3.341E-002
   ** Warning ** GetDXCoils: Coil:Cooling:DX:SingleSpeed="STORAGE_0_Z3_COOLINGCOILDX" curve values
   **   ~~~   ** ... Energy Input Ratio Function of Temperature Curve Name = COOL-EIR-FT output is not equal to 1.0 (+ or - 10%) at rated conditions.
   **   ~~~   ** ... Curve output at rated conditions = -3.341E-002
   ** Warning ** GetDXCoils: Coil:Cooling:DX:SingleSpeed="BREAK_ROOM_1_Z4_COOLINGCOILDX" curve values
   **   ~~~   ** ... Energy Input Ratio Function of Temperature Curve Name = COOL-EIR-FT output is not equal to 1.0 (+ or - 10%) at rated conditions.
   **   ~~~   ** ... Curve output at rated conditions = -3.341E-002
   ** Warning ** GetDXCoils: Coil:Cooling:DX:SingleSpeed="OFFICE_PRIVATE_1_Z5_COOLINGCOILDX" curve values
   **   ~~~   ** ... Energy Input Ratio Function of Temperature Curve Name = COOL-EIR-FT output is not equal to 1.0 (+ or - 10%) at rated conditions.
   **   ~~~   ** ... Curve output at rated conditions = -3.341E-002
   ** Warning ** GetDXCoils: Coil:Cooling:DX:SingleSpeed="STORAGE_1_Z6_COOLINGCOILDX" curve values
   **   ~~~   ** ... Energy Input Ratio Function of Temperature Curve Name = COOL-EIR-FT output is not equal to 1.0 (+ or - 10%) at rated conditions.
   **   ~~~   ** ... Curve output at rated conditions = -3.341E-002
   ** Warning ** GetDXCoils: Coil:Cooling:DX:SingleSpeed="LOBBY_2_Z7_COOLINGCOILDX" curve values
   **   ~~~   ** ... Energy Input Ratio Function of Temperature Curve Name = COOL-EIR-FT output is not equal to 1.0 (+ or - 10%) at rated conditions.
   **   ~~~   ** ... Curve output at rated conditions = -3.341E-002
   ** Warning ** GetDXCoils: Coil:Cooling:DX:SingleSpeed="MECHANICAL_2_Z8_COOLINGCOILDX" curve values
   **   ~~~   ** ... Energy Input Ratio Function of Temperature Curve Name = COOL-EIR-FT output is not equal to 1.0 (+ or - 10%) at rated conditions.
   **   ~~~   ** ... Curve output at rated conditions = -3.341E-002
   ** Warning ** CalcDoe2DXCoil: Coil:Cooling:DX:SingleSpeed="BREAK_ROOM_0_Z1_COOLINGCOILDX":
   **   ~~~   **  Energy Input Ratio Modifier curve (function of temperature) output is negative (-3.334E-002).
   **   ~~~   **  Negative value occurs using a condenser inlet air temperature of 35.0 and an inlet air wet-bulb temperature of 19.4.
   **   ~~~   **  Resetting curve output to zero and continuing simulation.
   **   ~~~   **  During Warmup, Environment=YEAR ROUND RUN PERIOD, at Simulation time=01/01 00:00 - 00:15
   ** Warning ** CalcDoe2DXCoil: Coil:Cooling:DX:SingleSpeed="OFFICE_PRIVATE_0_Z2_COOLINGCOILDX":
   **   ~~~   **  Energy Input Ratio Modifier curve (function of temperature) output is negative (-3.334E-002).
   **   ~~~   **  Negative value occurs using a condenser inlet air temperature of 35.0 and an inlet air wet-bulb temperature of 19.4.
   **   ~~~   **  Resetting curve output to zero and continuing simulation.
   **   ~~~   **  During Warmup, Environment=YEAR ROUND RUN PERIOD, at Simulation time=01/01 00:00 - 00:15
   ** Warning ** CalcDoe2DXCoil: Coil:Cooling:DX:SingleSpeed="STORAGE_0_Z3_COOLINGCOILDX":
   **   ~~~   **  Energy Input Ratio Modifier curve (function of temperature) output is negative (-3.334E-002).
   **   ~~~   **  Negative value occurs using a condenser inlet air temperature of 35.0 and an inlet air wet-bulb temperature of 19.4.
   **   ~~~   **  Resetting curve output to zero and continuing simulation.
   **   ~~~   **  During Warmup, Environment=YEAR ROUND RUN PERIOD, at Simulation time=01/01 00:00 - 00:15
   ** Warning ** CalcDoe2DXCoil: Coil:Cooling:DX:SingleSpeed="BREAK_ROOM_1_Z4_COOLINGCOILDX":
   **   ~~~   **  Energy Input Ratio Modifier curve (function of temperature) output is negative (-3.334E-002).
   **   ~~~   **  Negative value occurs using a condenser inlet air temperature of 35.0 and an inlet air wet-bulb temperature of 19.4.
   **   ~~~   **  Resetting curve output to zero and continuing simulation.
   **   ~~~   **  During Warmup, Environment=YEAR ROUND RUN PERIOD, at Simulation time=01/01 00:00 - 00:15
   ** Warning ** CalcDoe2DXCoil: Coil:Cooling:DX:SingleSpeed="OFFICE_PRIVATE_1_Z5_COOLINGCOILDX":
   **   ~~~   **  Energy Input Ratio Modifier curve (function of temperature) output is negative (-3.334E-002).
   **   ~~~   **  Negative value occurs using a condenser inlet air temperature of 35.0 and an inlet air wet-bulb temperature of 19.4.
   **   ~~~   **  Resetting curve output to zero and continuing simulation.
   **   ~~~   **  During Warmup, Environment=YEAR ROUND RUN PERIOD, at Simulation time=01/01 00:00 - 00:15
   ** Warning ** CalcDoe2DXCoil: Coil:Cooling:DX:SingleSpeed="STORAGE_1_Z6_COOLINGCOILDX":
   **   ~~~   **  Energy Input Ratio Modifier curve (function of temperature) output is negative (-3.334E-002).
   **   ~~~   **  Negative value occurs using a condenser inlet air temperature of 35.0 and an inlet air wet-bulb temperature of 19.4.
   **   ~~~   **  Resetting curve output to zero and continuing simulation.
   **   ~~~   **  During Warmup, Environment=YEAR ROUND RUN PERIOD, at Simulation time=01/01 00:00 - 00:15
   ** Warning ** CalcDoe2DXCoil: Coil:Cooling:DX:SingleSpeed="LOBBY_2_Z7_COOLINGCOILDX":
   **   ~~~   **  Energy Input Ratio Modifier curve (function of temperature) output is negative (-3.334E-002).
   **   ~~~   **  Negative value occurs using a condenser inlet air temperature of 35.0 and an inlet air wet-bulb temperature of 19.4.
   **   ~~~   **  Resetting curve output to zero and continuing simulation.
   **   ~~~   **  During Warmup, Environment=YEAR ROUND RUN PERIOD, at Simulation time=01/01 00:00 - 00:15
   ** Warning ** CalcDoe2DXCoil: Coil:Cooling:DX:SingleSpeed="MECHANICAL_2_Z8_COOLINGCOILDX":
   **   ~~~   **  Energy Input Ratio Modifier curve (function of temperature) output is negative (-3.334E-002).
   **   ~~~   **  Negative value occurs using a condenser inlet air temperature of 35.0 and an inlet air wet-bulb temperature of 19.4.
   **   ~~~   **  Resetting curve output to zero and continuing simulation.
   **   ~~~   **  During Warmup, Environment=YEAR ROUND RUN PERIOD, at Simulation time=01/01 00:00 - 00:15
   ************* Testing Individual Branch Integrity
   ************* All Branches passed integrity testing
   ************* Testing Individual Supply Air Path Integrity
   ************* All Supply Air Paths passed integrity testing
   ************* Testing Individual Return Air Path Integrity
   ************* All Return Air Paths passed integrity testing
   ************* No node connection errors were found.
   ************* Beginning Simulation
   ** Warning ** CalcDoe2DXCoil: Coil:Cooling:DX:SingleSpeed="OFFICE_PRIVATE_0_Z2_COOLINGCOILDX" - Air volume flow rate per watt of rated total cooling capacity is out of range at 1.017E-005 m3/s/W.
   **   ~~~   **  Environment=YEAR ROUND RUN PERIOD, at Simulation time=01/01 14:53 - 15:00
   **   ~~~   ** Expected range for VolumeFlowPerRatedTotalCapacity=[2.684E-005--6.713E-005]
   **   ~~~   ** Possible causes include inconsistent air flow rates in system components,
   **   ~~~   ** or variable air volume [VAV] system using incorrect coil type.
   ** Warning ** CalcDoe2DXCoil: Coil:Cooling:DX:SingleSpeed="STORAGE_0_Z3_COOLINGCOILDX" - Air volume flow rate per watt of rated total cooling capacity is out of range at 1.017E-005 m3/s/W.
   **   ~~~   **  Environment=YEAR ROUND RUN PERIOD, at Simulation time=01/01 14:53 - 15:00
   **   ~~~   ** Expected range for VolumeFlowPerRatedTotalCapacity=[2.684E-005--6.713E-005]
   **   ~~~   ** Possible causes include inconsistent air flow rates in system components,
   **   ~~~   ** or variable air volume [VAV] system using incorrect coil type.
   ** Warning ** CalcDoe2DXCoil: Coil:Cooling:DX:SingleSpeed "OFFICE_PRIVATE_0_Z2_COOLINGCOILDX" - Full load outlet air dry-bulb temperature < 2C. This indicates the possibility of coil frost/freeze. Outlet temperature = -44.92 C.
   **   ~~~   **  ...Occurrence info = YEAR ROUND RUN PERIOD, 01/01 14:53 - 15:00
   **   ~~~   ** ... Possible reasons for low outlet air dry-bulb temperatures are: This DX coil
   **   ~~~   **    1) may have a low inlet air dry-bulb temperature. Inlet air temperature = 24.137 C.
   **   ~~~   **    2) may have a low air flow rate per watt of cooling capacity. Check inputs.
   **   ~~~   **    3) is used as part of a HX assisted cooling coil which uses a high sensible effectiveness. Check inputs.
   ** Warning ** CalcDoe2DXCoil: Coil:Cooling:DX:SingleSpeed "STORAGE_0_Z3_COOLINGCOILDX" - Full load outlet air dry-bulb temperature < 2C. This indicates the possibility of coil frost/freeze. Outlet temperature = -44.91 C.
   **   ~~~   **  ...Occurrence info = YEAR ROUND RUN PERIOD, 01/01 14:53 - 15:00
   **   ~~~   ** ... Possible reasons for low outlet air dry-bulb temperatures are: This DX coil
   **   ~~~   **    1) may have a low inlet air dry-bulb temperature. Inlet air temperature = 24.176 C.
   **   ~~~   **    2) may have a low air flow rate per watt of cooling capacity. Check inputs.
   **   ~~~   **    3) is used as part of a HX assisted cooling coil which uses a high sensible effectiveness. Check inputs.
   ** Warning ** CalcDoe2DXCoil: Coil:Cooling:DX:SingleSpeed="OFFICE_PRIVATE_1_Z5_COOLINGCOILDX" - Air volume flow rate per watt of rated total cooling capacity is out of range at 1.012E-005 m3/s/W.
   **   ~~~   **  Environment=YEAR ROUND RUN PERIOD, at Simulation time=01/03 14:30 - 14:45
   **   ~~~   ** Expected range for VolumeFlowPerRatedTotalCapacity=[2.684E-005--6.713E-005]
   **   ~~~   ** Possible causes include inconsistent air flow rates in system components,
   **   ~~~   ** or variable air volume [VAV] system using incorrect coil type.
   ** Warning ** CalcDoe2DXCoil: Coil:Cooling:DX:SingleSpeed "OFFICE_PRIVATE_1_Z5_COOLINGCOILDX" - Full load outlet air dry-bulb temperature < 2C. This indicates the possibility of coil frost/freeze. Outlet temperature = -46.08 C.
   **   ~~~   **  ...Occurrence info = YEAR ROUND RUN PERIOD, 01/03 14:30 - 14:45
   **   ~~~   ** ... Possible reasons for low outlet air dry-bulb temperatures are: This DX coil
   **   ~~~   **    1) may have a low inlet air dry-bulb temperature. Inlet air temperature = 24.144 C.
   **   ~~~   **    2) may have a low air flow rate per watt of cooling capacity. Check inputs.
   **   ~~~   **    3) is used as part of a HX assisted cooling coil which uses a high sensible effectiveness. Check inputs.
   ** Warning ** CalcDoe2DXCoil: Coil:Cooling:DX:SingleSpeed="BREAK_ROOM_0_Z1_COOLINGCOILDX" - Air volume flow rate per watt of rated total cooling capacity is out of range at 1.020E-005 m3/s/W.
   **   ~~~   **  Environment=YEAR ROUND RUN PERIOD, at Simulation time=02/06 16:00 - 16:15
   **   ~~~   ** Expected range for VolumeFlowPerRatedTotalCapacity=[2.684E-005--6.713E-005]
   **   ~~~   ** Possible causes include inconsistent air flow rates in system components,
   **   ~~~   ** or variable air volume [VAV] system using incorrect coil type.
   ** Warning ** CalcDoe2DXCoil: Coil:Cooling:DX:SingleSpeed="BREAK_ROOM_1_Z4_COOLINGCOILDX" - Air volume flow rate per watt of rated total cooling capacity is out of range at 1.020E-005 m3/s/W.
   **   ~~~   **  Environment=YEAR ROUND RUN PERIOD, at Simulation time=02/06 16:00 - 16:15
   **   ~~~   ** Expected range for VolumeFlowPerRatedTotalCapacity=[2.684E-005--6.713E-005]
   **   ~~~   ** Possible causes include inconsistent air flow rates in system components,
   **   ~~~   ** or variable air volume [VAV] system using incorrect coil type.
   ** Warning ** CalcDoe2DXCoil: Coil:Cooling:DX:SingleSpeed "BREAK_ROOM_0_Z1_COOLINGCOILDX" - Full load outlet air dry-bulb temperature < 2C. This indicates the possibility of coil frost/freeze. Outlet temperature = -44.40 C.
   **   ~~~   **  ...Occurrence info = YEAR ROUND RUN PERIOD, 02/06 16:00 - 16:15
   **   ~~~   ** ... Possible reasons for low outlet air dry-bulb temperatures are: This DX coil
   **   ~~~   **    1) may have a low inlet air dry-bulb temperature. Inlet air temperature = 24.145 C.
   **   ~~~   **    2) may have a low air flow rate per watt of cooling capacity. Check inputs.
   **   ~~~   **    3) is used as part of a HX assisted cooling coil which uses a high sensible effectiveness. Check inputs.
   ** Warning ** CalcDoe2DXCoil: Coil:Cooling:DX:SingleSpeed "BREAK_ROOM_1_Z4_COOLINGCOILDX" - Full load outlet air dry-bulb temperature < 2C. This indicates the possibility of coil frost/freeze. Outlet temperature = -44.41 C.
   **   ~~~   **  ...Occurrence info = YEAR ROUND RUN PERIOD, 02/06 16:00 - 16:15
   **   ~~~   ** ... Possible reasons for low outlet air dry-bulb temperatures are: This DX coil
   **   ~~~   **    1) may have a low inlet air dry-bulb temperature. Inlet air temperature = 24.106 C.
   **   ~~~   **    2) may have a low air flow rate per watt of cooling capacity. Check inputs.
   **   ~~~   **    3) is used as part of a HX assisted cooling coil which uses a high sensible effectiveness. Check inputs.
   ** Warning ** CalcDoe2DXCoil: Coil:Cooling:DX:SingleSpeed="STORAGE_1_Z6_COOLINGCOILDX" - Air volume flow rate per watt of rated total cooling capacity is out of range at 1.019E-005 m3/s/W.
   **   ~~~   **  Environment=YEAR ROUND RUN PERIOD, at Simulation time=02/13 15:15 - 15:30
   **   ~~~   ** Expected range for VolumeFlowPerRatedTotalCapacity=[2.684E-005--6.713E-005]
   **   ~~~   ** Possible causes include inconsistent air flow rates in system components,
   **   ~~~   ** or variable air volume [VAV] system using incorrect coil type.
   ** Warning ** CalcDoe2DXCoil: Coil:Cooling:DX:SingleSpeed "STORAGE_1_Z6_COOLINGCOILDX" - Full load outlet air dry-bulb temperature < 2C. This indicates the possibility of coil frost/freeze. Outlet temperature = -44.09 C.
   **   ~~~   **  ...Occurrence info = YEAR ROUND RUN PERIOD, 02/13 15:15 - 15:30
   **   ~~~   ** ... Possible reasons for low outlet air dry-bulb temperatures are: This DX coil
   **   ~~~   **    1) may have a low inlet air dry-bulb temperature. Inlet air temperature = 24.164 C.
   **   ~~~   **    2) may have a low air flow rate per watt of cooling capacity. Check inputs.
   **   ~~~   **    3) is used as part of a HX assisted cooling coil which uses a high sensible effectiveness. Check inputs.
   ** Warning ** CalcDoe2DXCoil: Coil:Cooling:DX:SingleSpeed="MECHANICAL_2_Z8_COOLINGCOILDX" - Air volume flow rate per watt of rated total cooling capacity is out of range at 1.020E-005 m3/s/W.
   **   ~~~   **  Environment=YEAR ROUND RUN PERIOD, at Simulation time=02/14 11:00 - 11:15
   **   ~~~   ** Expected range for VolumeFlowPerRatedTotalCapacity=[2.684E-005--6.713E-005]
   **   ~~~   ** Possible causes include inconsistent air flow rates in system components,
   **   ~~~   ** or variable air volume [VAV] system using incorrect coil type.
   ** Warning ** CalcDoe2DXCoil: Coil:Cooling:DX:SingleSpeed "MECHANICAL_2_Z8_COOLINGCOILDX" - Full load outlet air dry-bulb temperature < 2C. This indicates the possibility of coil frost/freeze. Outlet temperature = -44.53 C.
   **   ~~~   **  ...Occurrence info = YEAR ROUND RUN PERIOD, 02/14 11:00 - 11:08
   **   ~~~   ** ... Possible reasons for low outlet air dry-bulb temperatures are: This DX coil
   **   ~~~   **    1) may have a low inlet air dry-bulb temperature. Inlet air temperature = 24.107 C.
   **   ~~~   **    2) may have a low air flow rate per watt of cooling capacity. Check inputs.
   **   ~~~   **    3) is used as part of a HX assisted cooling coil which uses a high sensible effectiveness. Check inputs.
   ** Warning ** CalcDoe2DXCoil: Coil:Cooling:DX:SingleSpeed="LOBBY_2_Z7_COOLINGCOILDX" - Air volume flow rate per watt of rated total cooling capacity is out of range at 1.020E-005 m3/s/W.
   **   ~~~   **  Environment=YEAR ROUND RUN PERIOD, at Simulation time=02/14 12:15 - 12:30
   **   ~~~   ** Expected range for VolumeFlowPerRatedTotalCapacity=[2.684E-005--6.713E-005]
   **   ~~~   ** Possible causes include inconsistent air flow rates in system components,
   **   ~~~   ** or variable air volume [VAV] system using incorrect coil type.
   ** Warning ** CalcDoe2DXCoil: Coil:Cooling:DX:SingleSpeed "LOBBY_2_Z7_COOLINGCOILDX" - Full load outlet air dry-bulb temperature < 2C. This indicates the possibility of coil frost/freeze. Outlet temperature = -41.97 C.
   **   ~~~   **  ...Occurrence info = YEAR ROUND RUN PERIOD, 02/14 12:23 - 12:30
   **   ~~~   ** ... Possible reasons for low outlet air dry-bulb temperatures are: This DX coil
   **   ~~~   **    1) may have a low inlet air dry-bulb temperature. Inlet air temperature = 24.232 C.
   **   ~~~   **    2) may have a low air flow rate per watt of cooling capacity. Check inputs.
   **   ~~~   **    3) is used as part of a HX assisted cooling coil which uses a high sensible effectiveness. Check inputs.
   ************* Simulation Error Summary *************
   ************* There are 1 unused schedules in input.
   ************* Use Output:Diagnostics,DisplayUnusedSchedules; to see them.
   *************
   ************* ===== Recurring Error Summary =====
   ************* The following recurring error messages occurred.
   *************
   *************  ** Warning ** CalcDoe2DXCoil: Coil:Cooling:DX:SingleSpeed="BREAK_ROOM_0_Z1_COOLINGCOILDX": Energy Input Ratio Modifier curve (function of temperature) output is negative warning continues...
   *************  **   ~~~   **   This error occurred 25 total times;
   *************  **   ~~~   **   during Warmup 1 times;
   *************  **   ~~~   **   during Sizing 0 times.
   *************  **   ~~~   **   Max=-0.000094  Min=-0.033347
   *************
   *************  ** Warning ** CalcDoe2DXCoil: Coil:Cooling:DX:SingleSpeed="OFFICE_PRIVATE_0_Z2_COOLINGCOILDX": Energy Input Ratio Modifier curve (function of temperature) output is negative warning continues...
   *************  **   ~~~   **   This error occurred 1 total times;
   *************  **   ~~~   **   during Warmup 1 times;
   *************  **   ~~~   **   during Sizing 0 times.
   *************  **   ~~~   **   Max=-0.033347  Min=-0.033347
   *************
   *************  ** Warning ** CalcDoe2DXCoil: Coil:Cooling:DX:SingleSpeed="STORAGE_0_Z3_COOLINGCOILDX": Energy Input Ratio Modifier curve (function of temperature) output is negative warning continues...
   *************  **   ~~~   **   This error occurred 1 total times;
   *************  **   ~~~   **   during Warmup 1 times;
   *************  **   ~~~   **   during Sizing 0 times.
   *************  **   ~~~   **   Max=-0.033347  Min=-0.033347
   *************
   *************  ** Warning ** CalcDoe2DXCoil: Coil:Cooling:DX:SingleSpeed="BREAK_ROOM_1_Z4_COOLINGCOILDX": Energy Input Ratio Modifier curve (function of temperature) output is negative warning continues...
   *************  **   ~~~   **   This error occurred 25 total times;
   *************  **   ~~~   **   during Warmup 1 times;
   *************  **   ~~~   **   during Sizing 0 times.
   *************  **   ~~~   **   Max=-0.000091  Min=-0.033347
   *************
   *************  ** Warning ** CalcDoe2DXCoil: Coil:Cooling:DX:SingleSpeed="OFFICE_PRIVATE_1_Z5_COOLINGCOILDX": Energy Input Ratio Modifier curve (function of temperature) output is negative warning continues...
   *************  **   ~~~   **   This error occurred 7 total times;
   *************  **   ~~~   **   during Warmup 1 times;
   *************  **   ~~~   **   during Sizing 0 times.
   *************  **   ~~~   **   Max=-0.000097  Min=-0.033347
   *************
   *************  ** Warning ** CalcDoe2DXCoil: Coil:Cooling:DX:SingleSpeed="STORAGE_1_Z6_COOLINGCOILDX": Energy Input Ratio Modifier curve (function of temperature) output is negative warning continues...
   *************  **   ~~~   **   This error occurred 91 total times;
   *************  **   ~~~   **   during Warmup 1 times;
   *************  **   ~~~   **   during Sizing 0 times.
   *************  **   ~~~   **   Max=-0.000115  Min=-0.033347
   *************
   *************  ** Warning ** CalcDoe2DXCoil: Coil:Cooling:DX:SingleSpeed="LOBBY_2_Z7_COOLINGCOILDX": Energy Input Ratio Modifier curve (function of temperature) output is negative warning continues...
   *************  **   ~~~   **   This error occurred 167 total times;
   *************  **   ~~~   **   during Warmup 1 times;
   *************  **   ~~~   **   during Sizing 0 times.
   *************  **   ~~~   **   Max=-0.000569  Min=-0.033347
   *************
   *************  ** Warning ** CalcDoe2DXCoil: Coil:Cooling:DX:SingleSpeed="MECHANICAL_2_Z8_COOLINGCOILDX": Energy Input Ratio Modifier curve (function of temperature) output is negative warning continues...
   *************  **   ~~~   **   This error occurred 117 total times;
   *************  **   ~~~   **   during Warmup 1 times;
   *************  **   ~~~   **   during Sizing 0 times.
   *************  **   ~~~   **   Max=-0.000156  Min=-0.033347
   *************
   *************  ** Warning ** CalcDoe2DXCoil: Coil:Cooling:DX:SingleSpeed="OFFICE_PRIVATE_0_Z2_COOLINGCOILDX" - Air volume flow rate per watt of rated total cooling capacity is out of range error continues...
   *************  **   ~~~   **   This error occurred 56354 total times;
   *************  **   ~~~   **   during Warmup 0 times;
   *************  **   ~~~   **   during Sizing 0 times.
   *************  **   ~~~   **   Max=0.000011  Min=0.000010
   *************
   *************  ** Warning ** CalcDoe2DXCoil: Coil:Cooling:DX:SingleSpeed="STORAGE_0_Z3_COOLINGCOILDX" - Air volume flow rate per watt of rated total cooling capacity is out of range error continues...
   *************  **   ~~~   **   This error occurred 51788 total times;
   *************  **   ~~~   **   during Warmup 0 times;
   *************  **   ~~~   **   during Sizing 0 times.
   *************  **   ~~~   **   Max=0.000011  Min=0.000010
   *************
   *************  ** Warning ** CalcDoe2DXCoil: Coil:Cooling:DX:SingleSpeed="OFFICE_PRIVATE_0_Z2_COOLINGCOILDX" - Full load outlet temperature indicates a possibility of frost/freeze error continues. Outlet air temperature statistics follow:
   *************  **   ~~~   **   This error occurred 21837 total times;
   *************  **   ~~~   **   during Warmup 0 times;
   *************  **   ~~~   **   during Sizing 0 times.
   *************  **   ~~~   **   Max=-29.517842  Min=-48.448131
   *************
   *************  ** Warning ** CalcDoe2DXCoil: Coil:Cooling:DX:SingleSpeed="STORAGE_0_Z3_COOLINGCOILDX" - Full load outlet temperature indicates a possibility of frost/freeze error continues. Outlet air temperature statistics follow:
   *************  **   ~~~   **   This error occurred 20090 total times;
   *************  **   ~~~   **   during Warmup 0 times;
   *************  **   ~~~   **   during Sizing 0 times.
   *************  **   ~~~   **   Max=-29.814920  Min=-49.890439
   *************
   *************  ** Warning ** CalcDoe2DXCoil: Coil:Cooling:DX:SingleSpeed="OFFICE_PRIVATE_1_Z5_COOLINGCOILDX" - Air volume flow rate per watt of rated total cooling capacity is out of range error continues...
   *************  **   ~~~   **   This error occurred 47480 total times;
   *************  **   ~~~   **   during Warmup 0 times;
   *************  **   ~~~   **   during Sizing 0 times.
   *************  **   ~~~   **   Max=0.000011  Min=0.000010
   *************
   *************  ** Warning ** CalcDoe2DXCoil: Coil:Cooling:DX:SingleSpeed="OFFICE_PRIVATE_1_Z5_COOLINGCOILDX" - Full load outlet temperature indicates a possibility of frost/freeze error continues. Outlet air temperature statistics follow:
   *************  **   ~~~   **   This error occurred 18447 total times;
   *************  **   ~~~   **   during Warmup 0 times;
   *************  **   ~~~   **   during Sizing 0 times.
   *************  **   ~~~   **   Max=-29.833060  Min=-47.578788
   *************
   *************  ** Warning ** CalcDoe2DXCoil: Coil:Cooling:DX:SingleSpeed="BREAK_ROOM_0_Z1_COOLINGCOILDX" - Air volume flow rate per watt of rated total cooling capacity is out of range error continues...
   *************  **   ~~~   **   This error occurred 45854 total times;
   *************  **   ~~~   **   during Warmup 0 times;
   *************  **   ~~~   **   during Sizing 0 times.
   *************  **   ~~~   **   Max=0.000011  Min=0.000010
   *************
   *************  ** Warning ** CalcDoe2DXCoil: Coil:Cooling:DX:SingleSpeed="BREAK_ROOM_1_Z4_COOLINGCOILDX" - Air volume flow rate per watt of rated total cooling capacity is out of range error continues...
   *************  **   ~~~   **   This error occurred 45402 total times;
   *************  **   ~~~   **   during Warmup 0 times;
   *************  **   ~~~   **   during Sizing 0 times.
   *************  **   ~~~   **   Max=0.000011  Min=0.000010
   *************
   *************  ** Warning ** CalcDoe2DXCoil: Coil:Cooling:DX:SingleSpeed="BREAK_ROOM_0_Z1_COOLINGCOILDX" - Full load outlet temperature indicates a possibility of frost/freeze error continues. Outlet air temperature statistics follow:
   *************  **   ~~~   **   This error occurred 17836 total times;
   *************  **   ~~~   **   during Warmup 0 times;
   *************  **   ~~~   **   during Sizing 0 times.
   *************  **   ~~~   **   Max=-29.891938  Min=-47.932294
   *************
   *************  ** Warning ** CalcDoe2DXCoil: Coil:Cooling:DX:SingleSpeed="BREAK_ROOM_1_Z4_COOLINGCOILDX" - Full load outlet temperature indicates a possibility of frost/freeze error continues. Outlet air temperature statistics follow:
   *************  **   ~~~   **   This error occurred 17663 total times;
   *************  **   ~~~   **   during Warmup 0 times;
   *************  **   ~~~   **   during Sizing 0 times.
   *************  **   ~~~   **   Max=-29.889852  Min=-47.953915
   *************
   *************  ** Warning ** CalcDoe2DXCoil: Coil:Cooling:DX:SingleSpeed="STORAGE_1_Z6_COOLINGCOILDX" - Air volume flow rate per watt of rated total cooling capacity is out of range error continues...
   *************  **   ~~~   **   This error occurred 40234 total times;
   *************  **   ~~~   **   during Warmup 0 times;
   *************  **   ~~~   **   during Sizing 0 times.
   *************  **   ~~~   **   Max=0.000011  Min=0.000010
   *************
   *************  ** Warning ** CalcDoe2DXCoil: Coil:Cooling:DX:SingleSpeed="STORAGE_1_Z6_COOLINGCOILDX" - Full load outlet temperature indicates a possibility of frost/freeze error continues. Outlet air temperature statistics follow:
   *************  **   ~~~   **   This error occurred 15724 total times;
   *************  **   ~~~   **   during Warmup 0 times;
   *************  **   ~~~   **   during Sizing 0 times.
   *************  **   ~~~   **   Max=-30.105213  Min=-48.467642
   *************
   *************  ** Warning ** CalcDoe2DXCoil: Coil:Cooling:DX:SingleSpeed="MECHANICAL_2_Z8_COOLINGCOILDX" - Air volume flow rate per watt of rated total cooling capacity is out of range error continues...
   *************  **   ~~~   **   This error occurred 36104 total times;
   *************  **   ~~~   **   during Warmup 0 times;
   *************  **   ~~~   **   during Sizing 0 times.
   *************  **   ~~~   **   Max=0.000011  Min=0.000010
   *************
   *************  ** Warning ** CalcDoe2DXCoil: Coil:Cooling:DX:SingleSpeed="MECHANICAL_2_Z8_COOLINGCOILDX" - Full load outlet temperature indicates a possibility of frost/freeze error continues. Outlet air temperature statistics follow:
   *************  **   ~~~   **   This error occurred 14167 total times;
   *************  **   ~~~   **   during Warmup 0 times;
   *************  **   ~~~   **   during Sizing 0 times.
   *************  **   ~~~   **   Max=-30.196258  Min=-48.049502
   *************
   *************  ** Warning ** CalcDoe2DXCoil: Coil:Cooling:DX:SingleSpeed="LOBBY_2_Z7_COOLINGCOILDX" - Air volume flow rate per watt of rated total cooling capacity is out of range error continues...
   *************  **   ~~~   **   This error occurred 28374 total times;
   *************  **   ~~~   **   during Warmup 0 times;
   *************  **   ~~~   **   during Sizing 0 times.
   *************  **   ~~~   **   Max=0.000011  Min=0.000010
   *************
   *************  ** Warning ** CalcDoe2DXCoil: Coil:Cooling:DX:SingleSpeed="LOBBY_2_Z7_COOLINGCOILDX" - Full load outlet temperature indicates a possibility of frost/freeze error continues. Outlet air temperature statistics follow:
   *************  **   ~~~   **   This error occurred 11151 total times;
   *************  **   ~~~   **   during Warmup 0 times;
   *************  **   ~~~   **   during Sizing 0 times.
   *************  **   ~~~   **   Max=-30.301070  Min=-45.831902
   *************
   ************* EnergyPlus Warmup Error Summary. During Warmup: 0 Warning; 0 Severe Errors.
   ************* EnergyPlus Sizing Error Summary. During Sizing: 0 Warning; 0 Severe Errors.
   ************* EnergyPlus Completed Successfully-- 488999 Warning; 0 Severe Errors; Elapsed Time=00hr 00min  5.92sec
