Program Version,EnergyPlus, Version 24.2.0-94a887817b, YMD=2025.11.02 21:51
! This file shows details about the branches, nodes, and other
! elements of the flow connections.
! This file is intended for use in "debugging" potential problems
! that may also be detected by the program, but may be more easily
! identified by "eye".
! This file is also intended to support software which draws a
! schematic diagram of the HVAC system.
! ===============================================================
! #Nodes,<Number of Unique Nodes>
 #Nodes,88
! <Node>,<NodeNumber>,<Node Name>,<Node Fluid Type>,<# Times Node Referenced After Definition>
 Node,1,BREAK_ROOM_0_Z1_ADUOUTLET,Air,4
 Node,2,OFFICE_PRIVATE_0_Z2_ADUOUTLET,Air,4
 Node,3,STORAGE_0_Z3_ADUOUTLET,Air,4
 Node,4,BREAK_ROOM_1_Z4_ADUOUTLET,Air,4
 Node,5,OFFICE_PRIVATE_1_Z5_ADUOUTLET,Air,4
 Node,6,STORAGE_1_Z6_ADUOUTLET,Air,4
 Node,7,LOBBY_2_Z7_ADUOUTLET,Air,4
 Node,8,MECHANICAL_2_Z8_ADUOUTLET,Air,4
 Node,9,BREAK_ROOM_0_Z1_SUPPLYINLET,Air,3
 Node,10,BREAK_ROOM_0_Z1_COOLC-HEATCNODE,Air,6
 Node,11,BREAK_ROOM_0_Z1_HEATC-FANNODE,Air,5
 Node,12,BREAK_ROOM_0_Z1_SUPPLYEQUIPMENTOUTLETNODE,Air,3
 Node,13,OFFICE_PRIVATE_0_Z2_SUPPLYINLET,Air,3
 Node,14,OFFICE_PRIVATE_0_Z2_COOLC-HEATCNODE,Air,6
 Node,15,OFFICE_PRIVATE_0_Z2_HEATC-FANNODE,Air,5
 Node,16,OFFICE_PRIVATE_0_Z2_SUPPLYEQUIPMENTOUTLETNODE,Air,3
 Node,17,STORAGE_0_Z3_SUPPLYINLET,Air,3
 Node,18,STORAGE_0_Z3_COOLC-HEATCNODE,Air,6
 Node,19,STORAGE_0_Z3_HEATC-FANNODE,Air,5
 Node,20,STORAGE_0_Z3_SUPPLYEQUIPMENTOUTLETNODE,Air,3
 Node,21,BREAK_ROOM_1_Z4_SUPPLYINLET,Air,3
 Node,22,BREAK_ROOM_1_Z4_COOLC-HEATCNODE,Air,6
 Node,23,BREAK_ROOM_1_Z4_HEATC-FANNODE,Air,5
 Node,24,BREAK_ROOM_1_Z4_SUPPLYEQUIPMENTOUTLETNODE,Air,3
 Node,25,OFFICE_PRIVATE_1_Z5_SUPPLYINLET,Air,3
 Node,26,OFFICE_PRIVATE_1_Z5_COOLC-HEATCNODE,Air,6
 Node,27,OFFICE_PRIVATE_1_Z5_HEATC-FANNODE,Air,5
 Node,28,OFFICE_PRIVATE_1_Z5_SUPPLYEQUIPMENTOUTLETNODE,Air,3
 Node,29,STORAGE_1_Z6_SUPPLYINLET,Air,3
 Node,30,STORAGE_1_Z6_COOLC-HEATCNODE,Air,6
 Node,31,STORAGE_1_Z6_HEATC-FANNODE,Air,5
 Node,32,STORAGE_1_Z6_SUPPLYEQUIPMENTOUTLETNODE,Air,3
 Node,33,LOBBY_2_Z7_SUPPLYINLET,Air,3
 Node,34,LOBBY_2_Z7_COOLC-HEATCNODE,Air,6
 Node,35,LOBBY_2_Z7_HEATC-FANNODE,Air,5
 Node,36,LOBBY_2_Z7_SUPPLYEQUIPMENTOUTLETNODE,Air,3
 Node,37,MECHANICAL_2_Z8_SUPPLYINLET,Air,3
 Node,38,MECHANICAL_2_Z8_COOLC-HEATCNODE,Air,6
 Node,39,MECHANICAL_2_Z8_HEATC-FANNODE,Air,5
 Node,40,MECHANICAL_2_Z8_SUPPLYEQUIPMENTOUTLETNODE,Air,3
 Node,41,BREAK_ROOM_0 AIR NODE,Air,0
 Node,42,BREAK_ROOM_0_Z1_RETURNAIR,Air,1
 Node,43,OFFICE_PRIVATE_0 AIR NODE,Air,0
 Node,44,OFFICE_PRIVATE_0_Z2_RETURNAIR,Air,1
 Node,45,STORAGE_0 AIR NODE,Air,0
 Node,46,STORAGE_0_Z3_RETURNAIR,Air,1
 Node,47,BREAK_ROOM_1 AIR NODE,Air,0
 Node,48,BREAK_ROOM_1_Z4_RETURNAIR,Air,1
 Node,49,OFFICE_PRIVATE_1 AIR NODE,Air,0
 Node,50,OFFICE_PRIVATE_1_Z5_RETURNAIR,Air,1
 Node,51,STORAGE_1 AIR NODE,Air,0
 Node,52,STORAGE_1_Z6_RETURNAIR,Air,1
 Node,53,LOBBY_2 AIR NODE,Air,0
 Node,54,LOBBY_2_Z7_RETURNAIR,Air,1
 Node,55,MECHANICAL_2 AIR NODE,Air,0
 Node,56,MECHANICAL_2_Z8_RETURNAIR,Air,1
 Node,57,BREAK_ROOM_0_Z1_ZONEEQUIPMENTINLET,Air,2
 Node,58,OFFICE_PRIVATE_0_Z2_ZONEEQUIPMENTINLET,Air,2
 Node,59,STORAGE_0_Z3_ZONEEQUIPMENTINLET,Air,2
 Node,60,BREAK_ROOM_1_Z4_ZONEEQUIPMENTINLET,Air,2
 Node,61,OFFICE_PRIVATE_1_Z5_ZONEEQUIPMENTINLET,Air,2
 Node,62,STORAGE_1_Z6_ZONEEQUIPMENTINLET,Air,2
 Node,63,LOBBY_2_Z7_ZONEEQUIPMENTINLET,Air,2
 Node,64,MECHANICAL_2_Z8_ZONEEQUIPMENTINLET,Air,2
 Node,65,BREAK_ROOM_0_Z1_ZONEEQUIPMENTOUTLETNODE,Air,2
 Node,66,OFFICE_PRIVATE_0_Z2_ZONEEQUIPMENTOUTLETNODE,Air,2
 Node,67,STORAGE_0_Z3_ZONEEQUIPMENTOUTLETNODE,Air,2
 Node,68,BREAK_ROOM_1_Z4_ZONEEQUIPMENTOUTLETNODE,Air,2
 Node,69,OFFICE_PRIVATE_1_Z5_ZONEEQUIPMENTOUTLETNODE,Air,2
 Node,70,STORAGE_1_Z6_ZONEEQUIPMENTOUTLETNODE,Air,2
 Node,71,LOBBY_2_Z7_ZONEEQUIPMENTOUTLETNODE,Air,2
 Node,72,MECHANICAL_2_Z8_ZONEEQUIPMENTOUTLETNODE,Air,2
 Node,73,BREAK_ROOM_0_Z1_TERMINALINLET,Air,1
 Node,74,OFFICE_PRIVATE_0_Z2_TERMINALINLET,Air,1
 Node,75,STORAGE_0_Z3_TERMINALINLET,Air,1
 Node,76,BREAK_ROOM_1_Z4_TERMINALINLET,Air,1
 Node,77,OFFICE_PRIVATE_1_Z5_TERMINALINLET,Air,1
 Node,78,STORAGE_1_Z6_TERMINALINLET,Air,1
 Node,79,LOBBY_2_Z7_TERMINALINLET,Air,1
 Node,80,MECHANICAL_2_Z8_TERMINALINLET,Air,1
 Node,81,BREAK_ROOM_0_Z1_TERMINALOUTLET,Air,1
 Node,82,OFFICE_PRIVATE_0_Z2_TERMINALOUTLET,Air,1
 Node,83,STORAGE_0_Z3_TERMINALOUTLET,Air,1
 Node,84,BREAK_ROOM_1_Z4_TERMINALOUTLET,Air,1
 Node,85,OFFICE_PRIVATE_1_Z5_TERMINALOUTLET,Air,1
 Node,86,STORAGE_1_Z6_TERMINALOUTLET,Air,1
 Node,87,LOBBY_2_Z7_TERMINALOUTLET,Air,1
 Node,88,MECHANICAL_2_Z8_TERMINALOUTLET,Air,1
! ===============================================================
! Suspicious nodes have 0 references.  It is normal for some nodes, however.
! Listing nodes with 0 references (culled from previous list):
! <Suspicious Node>,<NodeNumber>,<Node Name>,<Node Fluid Type>,<# Times Node Referenced After Definition>
 Suspicious Node,41,BREAK_ROOM_0 AIR NODE,Air,0
 Suspicious Node,43,OFFICE_PRIVATE_0 AIR NODE,Air,0
 Suspicious Node,45,STORAGE_0 AIR NODE,Air,0
 Suspicious Node,47,BREAK_ROOM_1 AIR NODE,Air,0
 Suspicious Node,49,OFFICE_PRIVATE_1 AIR NODE,Air,0
 Suspicious Node,51,STORAGE_1 AIR NODE,Air,0
 Suspicious Node,53,LOBBY_2 AIR NODE,Air,0
 Suspicious Node,55,MECHANICAL_2 AIR NODE,Air,0
! ===============================================================
! <#Branch Lists>,<Number of Branch Lists>
 #Branch Lists,8
! <Branch List>,<Branch List Count>,<Branch List Name>,<Loop Name>,<Loop Type>,<Number of Branches>
! <Branch>,<Branch Count>,<Branch Name>,<Loop Name>,<Loop Type>,<Branch Inlet Node Name>,<Branch Outlet Node Name>
 Branch List,1,BREAK_ROOM_0_Z1_BRANCHLIST,BREAK_ROOM_0_Z1_AIRLOOP,Air,1
   Branch,1,BREAK_ROOM_0_Z1_MAINBRANCH,BREAK_ROOM_0_Z1_AIRLOOP,Air,BREAK_ROOM_0_Z1_SUPPLYINLET,BREAK_ROOM_0_Z1_SUPPLYEQUIPMENTOUTLETNODE
 Branch List,2,OFFICE_PRIVATE_0_Z2_BRANCHLIST,OFFICE_PRIVATE_0_Z2_AIRLOOP,Air,1
   Branch,1,OFFICE_PRIVATE_0_Z2_MAINBRANCH,OFFICE_PRIVATE_0_Z2_AIRLOOP,Air,OFFICE_PRIVATE_0_Z2_SUPPLYINLET,OFFICE_PRIVATE_0_Z2_SUPPLYEQUIPMENTOUTLETNODE
 Branch List,3,STORAGE_0_Z3_BRANCHLIST,STORAGE_0_Z3_AIRLOOP,Air,1
   Branch,1,STORAGE_0_Z3_MAINBRANCH,STORAGE_0_Z3_AIRLOOP,Air,STORAGE_0_Z3_SUPPLYINLET,STORAGE_0_Z3_SUPPLYEQUIPMENTOUTLETNODE
 Branch List,4,BREAK_ROOM_1_Z4_BRANCHLIST,BREAK_ROOM_1_Z4_AIRLOOP,Air,1
   Branch,1,BREAK_ROOM_1_Z4_MAINBRANCH,BREAK_ROOM_1_Z4_AIRLOOP,Air,BREAK_ROOM_1_Z4_SUPPLYINLET,BREAK_ROOM_1_Z4_SUPPLYEQUIPMENTOUTLETNODE
 Branch List,5,OFFICE_PRIVATE_1_Z5_BRANCHLIST,OFFICE_PRIVATE_1_Z5_AIRLOOP,Air,1
   Branch,1,OFFICE_PRIVATE_1_Z5_MAINBRANCH,OFFICE_PRIVATE_1_Z5_AIRLOOP,Air,OFFICE_PRIVATE_1_Z5_SUPPLYINLET,OFFICE_PRIVATE_1_Z5_SUPPLYEQUIPMENTOUTLETNODE
 Branch List,6,STORAGE_1_Z6_BRANCHLIST,STORAGE_1_Z6_AIRLOOP,Air,1
   Branch,1,STORAGE_1_Z6_MAINBRANCH,STORAGE_1_Z6_AIRLOOP,Air,STORAGE_1_Z6_SUPPLYINLET,STORAGE_1_Z6_SUPPLYEQUIPMENTOUTLETNODE
 Branch List,7,LOBBY_2_Z7_BRANCHLIST,LOBBY_2_Z7_AIRLOOP,Air,1
   Branch,1,LOBBY_2_Z7_MAINBRANCH,LOBBY_2_Z7_AIRLOOP,Air,LOBBY_2_Z7_SUPPLYINLET,LOBBY_2_Z7_SUPPLYEQUIPMENTOUTLETNODE
 Branch List,8,MECHANICAL_2_Z8_BRANCHLIST,MECHANICAL_2_Z8_AIRLOOP,Air,1
   Branch,1,MECHANICAL_2_Z8_MAINBRANCH,MECHANICAL_2_Z8_AIRLOOP,Air,MECHANICAL_2_Z8_SUPPLYINLET,MECHANICAL_2_Z8_SUPPLYEQUIPMENTOUTLETNODE
! ===============================================================
! <#Supply Air Paths>,<Number of Supply Air Paths>
 #Supply Air Paths,8
! <Supply Air Path>,<Supply Air Path Count>,<Supply Air Path Name>,<AirLoopHVAC Name>
! <#Components on Supply Air Path>,<Number of Components>
! <Supply Air Path Component>,<Component Count>,<Component Type>,<Component Name>,<AirLoopHVAC Name>
! <#Outlet Nodes on Supply Air Path Component>,<Number of Nodes>
! <Supply Air Path Component Nodes>,<Node Count>,<Component Type>,<Component Name>,<Inlet Node Name>,<Outlet Node Name>,<AirLoopHVAC Name>
 Supply Air Path,1,BREAK_ROOM_0_Z1,BREAK_ROOM_0_Z1_AIRLOOP
   #Components on Supply Air Path,1
   Supply Air Path Component,1,AIRLOOPHVAC:ZONESPLITTER,BREAK_ROOM_0_Z1_SUPPLYSPLITTER,BREAK_ROOM_0_Z1_AIRLOOP
     #Outlet Nodes on Supply Air Path Component,1
     Supply Air Path Component Nodes,1,AIRLOOPHVAC:ZONESPLITTER,BREAK_ROOM_0_Z1_SUPPLYSPLITTER,BREAK_ROOM_0_Z1_ZONEEQUIPMENTINLET,BREAK_ROOM_0_Z1_TERMINALINLET,BREAK_ROOM_0_Z1_AIRLOOP
! <#Nodes on Supply Air Path>,<Number of Nodes>
! <Supply Air Path Node>,<Node Type>,<Node Count>,<Node Name>,<AirLoopHVAC Name>
#Nodes on Supply Air Path,2
   Supply Air Path Node,Inlet Node,1,BREAK_ROOM_0_Z1_ZONEEQUIPMENTINLET,BREAK_ROOM_0_Z1_AIRLOOP
   Supply Air Path Node,Outlet Node,2,BREAK_ROOM_0_Z1_TERMINALINLET,BREAK_ROOM_0_Z1_AIRLOOP
 Supply Air Path,2,OFFICE_PRIVATE_0_Z2,OFFICE_PRIVATE_0_Z2_AIRLOOP
   #Components on Supply Air Path,1
   Supply Air Path Component,1,AIRLOOPHVAC:ZONESPLITTER,OFFICE_PRIVATE_0_Z2_SUPPLYSPLITTER,OFFICE_PRIVATE_0_Z2_AIRLOOP
     #Outlet Nodes on Supply Air Path Component,1
     Supply Air Path Component Nodes,1,AIRLOOPHVAC:ZONESPLITTER,OFFICE_PRIVATE_0_Z2_SUPPLYSPLITTER,OFFICE_PRIVATE_0_Z2_ZONEEQUIPMENTINLET,OFFICE_PRIVATE_0_Z2_TERMINALINLET,OFFICE_PRIVATE_0_Z2_AIRLOOP
! <#Nodes on Supply Air Path>,<Number of Nodes>
! <Supply Air Path Node>,<Node Type>,<Node Count>,<Node Name>,<AirLoopHVAC Name>
#Nodes on Supply Air Path,2
   Supply Air Path Node,Inlet Node,1,OFFICE_PRIVATE_0_Z2_ZONEEQUIPMENTINLET,OFFICE_PRIVATE_0_Z2_AIRLOOP
   Supply Air Path Node,Outlet Node,2,OFFICE_PRIVATE_0_Z2_TERMINALINLET,OFFICE_PRIVATE_0_Z2_AIRLOOP
 Supply Air Path,3,STORAGE_0_Z3,STORAGE_0_Z3_AIRLOOP
   #Components on Supply Air Path,1
   Supply Air Path Component,1,AIRLOOPHVAC:ZONESPLITTER,STORAGE_0_Z3_SUPPLYSPLITTER,STORAGE_0_Z3_AIRLOOP
     #Outlet Nodes on Supply Air Path Component,1
     Supply Air Path Component Nodes,1,AIRLOOPHVAC:ZONESPLITTER,STORAGE_0_Z3_SUPPLYSPLITTER,STORAGE_0_Z3_ZONEEQUIPMENTINLET,STORAGE_0_Z3_TERMINALINLET,STORAGE_0_Z3_AIRLOOP
! <#Nodes on Supply Air Path>,<Number of Nodes>
! <Supply Air Path Node>,<Node Type>,<Node Count>,<Node Name>,<AirLoopHVAC Name>
#Nodes on Supply Air Path,2
   Supply Air Path Node,Inlet Node,1,STORAGE_0_Z3_ZONEEQUIPMENTINLET,STORAGE_0_Z3_AIRLOOP
   Supply Air Path Node,Outlet Node,2,STORAGE_0_Z3_TERMINALINLET,STORAGE_0_Z3_AIRLOOP
 Supply Air Path,4,BREAK_ROOM_1_Z4,BREAK_ROOM_1_Z4_AIRLOOP
   #Components on Supply Air Path,1
   Supply Air Path Component,1,AIRLOOPHVAC:ZONESPLITTER,BREAK_ROOM_1_Z4_SUPPLYSPLITTER,BREAK_ROOM_1_Z4_AIRLOOP
     #Outlet Nodes on Supply Air Path Component,1
     Supply Air Path Component Nodes,1,AIRLOOPHVAC:ZONESPLITTER,BREAK_ROOM_1_Z4_SUPPLYSPLITTER,BREAK_ROOM_1_Z4_ZONEEQUIPMENTINLET,BREAK_ROOM_1_Z4_TERMINALINLET,BREAK_ROOM_1_Z4_AIRLOOP
! <#Nodes on Supply Air Path>,<Number of Nodes>
! <Supply Air Path Node>,<Node Type>,<Node Count>,<Node Name>,<AirLoopHVAC Name>
#Nodes on Supply Air Path,2
   Supply Air Path Node,Inlet Node,1,BREAK_ROOM_1_Z4_ZONEEQUIPMENTINLET,BREAK_ROOM_1_Z4_AIRLOOP
   Supply Air Path Node,Outlet Node,2,BREAK_ROOM_1_Z4_TERMINALINLET,BREAK_ROOM_1_Z4_AIRLOOP
 Supply Air Path,5,OFFICE_PRIVATE_1_Z5,OFFICE_PRIVATE_1_Z5_AIRLOOP
   #Components on Supply Air Path,1
   Supply Air Path Component,1,AIRLOOPHVAC:ZONESPLITTER,OFFICE_PRIVATE_1_Z5_SUPPLYSPLITTER,OFFICE_PRIVATE_1_Z5_AIRLOOP
     #Outlet Nodes on Supply Air Path Component,1
     Supply Air Path Component Nodes,1,AIRLOOPHVAC:ZONESPLITTER,OFFICE_PRIVATE_1_Z5_SUPPLYSPLITTER,OFFICE_PRIVATE_1_Z5_ZONEEQUIPMENTINLET,OFFICE_PRIVATE_1_Z5_TERMINALINLET,OFFICE_PRIVATE_1_Z5_AIRLOOP
! <#Nodes on Supply Air Path>,<Number of Nodes>
! <Supply Air Path Node>,<Node Type>,<Node Count>,<Node Name>,<AirLoopHVAC Name>
#Nodes on Supply Air Path,2
   Supply Air Path Node,Inlet Node,1,OFFICE_PRIVATE_1_Z5_ZONEEQUIPMENTINLET,OFFICE_PRIVATE_1_Z5_AIRLOOP
   Supply Air Path Node,Outlet Node,2,OFFICE_PRIVATE_1_Z5_TERMINALINLET,OFFICE_PRIVATE_1_Z5_AIRLOOP
 Supply Air Path,6,STORAGE_1_Z6,STORAGE_1_Z6_AIRLOOP
   #Components on Supply Air Path,1
   Supply Air Path Component,1,AIRLOOPHVAC:ZONESPLITTER,STORAGE_1_Z6_SUPPLYSPLITTER,STORAGE_1_Z6_AIRLOOP
     #Outlet Nodes on Supply Air Path Component,1
     Supply Air Path Component Nodes,1,AIRLOOPHVAC:ZONESPLITTER,STORAGE_1_Z6_SUPPLYSPLITTER,STORAGE_1_Z6_ZONEEQUIPMENTINLET,STORAGE_1_Z6_TERMINALINLET,STORAGE_1_Z6_AIRLOOP
! <#Nodes on Supply Air Path>,<Number of Nodes>
! <Supply Air Path Node>,<Node Type>,<Node Count>,<Node Name>,<AirLoopHVAC Name>
#Nodes on Supply Air Path,2
   Supply Air Path Node,Inlet Node,1,STORAGE_1_Z6_ZONEEQUIPMENTINLET,STORAGE_1_Z6_AIRLOOP
   Supply Air Path Node,Outlet Node,2,STORAGE_1_Z6_TERMINALINLET,STORAGE_1_Z6_AIRLOOP
 Supply Air Path,7,LOBBY_2_Z7,LOBBY_2_Z7_AIRLOOP
   #Components on Supply Air Path,1
   Supply Air Path Component,1,AIRLOOPHVAC:ZONESPLITTER,LOBBY_2_Z7_SUPPLYSPLITTER,LOBBY_2_Z7_AIRLOOP
     #Outlet Nodes on Supply Air Path Component,1
     Supply Air Path Component Nodes,1,AIRLOOPHVAC:ZONESPLITTER,LOBBY_2_Z7_SUPPLYSPLITTER,LOBBY_2_Z7_ZONEEQUIPMENTINLET,LOBBY_2_Z7_TERMINALINLET,LOBBY_2_Z7_AIRLOOP
! <#Nodes on Supply Air Path>,<Number of Nodes>
! <Supply Air Path Node>,<Node Type>,<Node Count>,<Node Name>,<AirLoopHVAC Name>
#Nodes on Supply Air Path,2
   Supply Air Path Node,Inlet Node,1,LOBBY_2_Z7_ZONEEQUIPMENTINLET,LOBBY_2_Z7_AIRLOOP
   Supply Air Path Node,Outlet Node,2,LOBBY_2_Z7_TERMINALINLET,LOBBY_2_Z7_AIRLOOP
 Supply Air Path,8,MECHANICAL_2_Z8,MECHANICAL_2_Z8_AIRLOOP
   #Components on Supply Air Path,1
   Supply Air Path Component,1,AIRLOOPHVAC:ZONESPLITTER,MECHANICAL_2_Z8_SUPPLYSPLITTER,MECHANICAL_2_Z8_AIRLOOP
     #Outlet Nodes on Supply Air Path Component,1
     Supply Air Path Component Nodes,1,AIRLOOPHVAC:ZONESPLITTER,MECHANICAL_2_Z8_SUPPLYSPLITTER,MECHANICAL_2_Z8_ZONEEQUIPMENTINLET,MECHANICAL_2_Z8_TERMINALINLET,MECHANICAL_2_Z8_AIRLOOP
! <#Nodes on Supply Air Path>,<Number of Nodes>
! <Supply Air Path Node>,<Node Type>,<Node Count>,<Node Name>,<AirLoopHVAC Name>
#Nodes on Supply Air Path,2
   Supply Air Path Node,Inlet Node,1,MECHANICAL_2_Z8_ZONEEQUIPMENTINLET,MECHANICAL_2_Z8_AIRLOOP
   Supply Air Path Node,Outlet Node,2,MECHANICAL_2_Z8_TERMINALINLET,MECHANICAL_2_Z8_AIRLOOP
! ===============================================================
! <#Return Air Paths>,<Number of Return Air Paths>
 #Return Air Paths,8
! <Return Air Path>,<Return Air Path Count>,<Return Air Path Name>,<AirLoopHVAC Name>
! <#Components on Return Air Path>,<Number of Components>
! <Return Air Path Component>,<Component Count>,<Component Type>,<Component Name>,<AirLoopHVAC Name>
! <#Inlet Nodes on Return Air Path Component>,<Number of Nodes>
! <Return Air Path Component Nodes>,<Node Count>,<Component Type>,<Component Name>,<Inlet Node Name>,<Outlet Node Name>,<AirLoopHVAC Name>
 Return Air Path,1,BREAK_ROOM_0_Z1_RETURNAIRPATH,BREAK_ROOM_0_Z1_AIRLOOP
   #Components on Return Air Path,1
   Return Air Path Component,1,AIRLOOPHVAC:ZONEMIXER,BREAK_ROOM_0_Z1_RETURNAIRMIXER,BREAK_ROOM_0_Z1_AIRLOOP
     #Inlet Nodes on Return Air Path Component,1
     Return Air Path Component Nodes,1,AIRLOOPHVAC:ZONEMIXER,BREAK_ROOM_0_Z1_RETURNAIRMIXER,BREAK_ROOM_0_Z1_RETURNAIR,BREAK_ROOM_0_Z1_ZONEEQUIPMENTOUTLETNODE,BREAK_ROOM_0_Z1_AIRLOOP
! <#Nodes on Return Air Path>,<Number of Nodes>
! <Return Air Path Node>,<Node Type>,<Node Count>,<Node Name>,<AirLoopHVAC Name>
   #Nodes on Return Air Path,2
   Return Air Path Node,Outlet Node,1,BREAK_ROOM_0_Z1_ZONEEQUIPMENTOUTLETNODE,BREAK_ROOM_0_Z1_AIRLOOP
   Return Air Path Node,Inlet Node,2,BREAK_ROOM_0_Z1_RETURNAIR,BREAK_ROOM_0_Z1_AIRLOOP
 Return Air Path,2,OFFICE_PRIVATE_0_Z2_RETURNAIRPATH,OFFICE_PRIVATE_0_Z2_AIRLOOP
   #Components on Return Air Path,1
   Return Air Path Component,1,AIRLOOPHVAC:ZONEMIXER,OFFICE_PRIVATE_0_Z2_RETURNAIRMIXER,OFFICE_PRIVATE_0_Z2_AIRLOOP
     #Inlet Nodes on Return Air Path Component,1
     Return Air Path Component Nodes,1,AIRLOOPHVAC:ZONEMIXER,OFFICE_PRIVATE_0_Z2_RETURNAIRMIXER,OFFICE_PRIVATE_0_Z2_RETURNAIR,OFFICE_PRIVATE_0_Z2_ZONEEQUIPMENTOUTLETNODE,OFFICE_PRIVATE_0_Z2_AIRLOOP
! <#Nodes on Return Air Path>,<Number of Nodes>
! <Return Air Path Node>,<Node Type>,<Node Count>,<Node Name>,<AirLoopHVAC Name>
   #Nodes on Return Air Path,2
   Return Air Path Node,Outlet Node,1,OFFICE_PRIVATE_0_Z2_ZONEEQUIPMENTOUTLETNODE,OFFICE_PRIVATE_0_Z2_AIRLOOP
   Return Air Path Node,Inlet Node,2,OFFICE_PRIVATE_0_Z2_RETURNAIR,OFFICE_PRIVATE_0_Z2_AIRLOOP
 Return Air Path,3,STORAGE_0_Z3_RETURNAIRPATH,STORAGE_0_Z3_AIRLOOP
   #Components on Return Air Path,1
   Return Air Path Component,1,AIRLOOPHVAC:ZONEMIXER,STORAGE_0_Z3_RETURNAIRMIXER,STORAGE_0_Z3_AIRLOOP
     #Inlet Nodes on Return Air Path Component,1
     Return Air Path Component Nodes,1,AIRLOOPHVAC:ZONEMIXER,STORAGE_0_Z3_RETURNAIRMIXER,STORAGE_0_Z3_RETURNAIR,STORAGE_0_Z3_ZONEEQUIPMENTOUTLETNODE,STORAGE_0_Z3_AIRLOOP
! <#Nodes on Return Air Path>,<Number of Nodes>
! <Return Air Path Node>,<Node Type>,<Node Count>,<Node Name>,<AirLoopHVAC Name>
   #Nodes on Return Air Path,2
   Return Air Path Node,Outlet Node,1,STORAGE_0_Z3_ZONEEQUIPMENTOUTLETNODE,STORAGE_0_Z3_AIRLOOP
   Return Air Path Node,Inlet Node,2,STORAGE_0_Z3_RETURNAIR,STORAGE_0_Z3_AIRLOOP
 Return Air Path,4,BREAK_ROOM_1_Z4_RETURNAIRPATH,BREAK_ROOM_1_Z4_AIRLOOP
   #Components on Return Air Path,1
   Return Air Path Component,1,AIRLOOPHVAC:ZONEMIXER,BREAK_ROOM_1_Z4_RETURNAIRMIXER,BREAK_ROOM_1_Z4_AIRLOOP
     #Inlet Nodes on Return Air Path Component,1
     Return Air Path Component Nodes,1,AIRLOOPHVAC:ZONEMIXER,BREAK_ROOM_1_Z4_RETURNAIRMIXER,BREAK_ROOM_1_Z4_RETURNAIR,BREAK_ROOM_1_Z4_ZONEEQUIPMENTOUTLETNODE,BREAK_ROOM_1_Z4_AIRLOOP
! <#Nodes on Return Air Path>,<Number of Nodes>
! <Return Air Path Node>,<Node Type>,<Node Count>,<Node Name>,<AirLoopHVAC Name>
   #Nodes on Return Air Path,2
   Return Air Path Node,Outlet Node,1,BREAK_ROOM_1_Z4_ZONEEQUIPMENTOUTLETNODE,BREAK_ROOM_1_Z4_AIRLOOP
   Return Air Path Node,Inlet Node,2,BREAK_ROOM_1_Z4_RETURNAIR,BREAK_ROOM_1_Z4_AIRLOOP
 Return Air Path,5,OFFICE_PRIVATE_1_Z5_RETURNAIRPATH,OFFICE_PRIVATE_1_Z5_AIRLOOP
   #Components on Return Air Path,1
   Return Air Path Component,1,AIRLOOPHVAC:ZONEMIXER,OFFICE_PRIVATE_1_Z5_RETURNAIRMIXER,OFFICE_PRIVATE_1_Z5_AIRLOOP
     #Inlet Nodes on Return Air Path Component,1
     Return Air Path Component Nodes,1,AIRLOOPHVAC:ZONEMIXER,OFFICE_PRIVATE_1_Z5_RETURNAIRMIXER,OFFICE_PRIVATE_1_Z5_RETURNAIR,OFFICE_PRIVATE_1_Z5_ZONEEQUIPMENTOUTLETNODE,OFFICE_PRIVATE_1_Z5_AIRLOOP
! <#Nodes on Return Air Path>,<Number of Nodes>
! <Return Air Path Node>,<Node Type>,<Node Count>,<Node Name>,<AirLoopHVAC Name>
   #Nodes on Return Air Path,2
   Return Air Path Node,Outlet Node,1,OFFICE_PRIVATE_1_Z5_ZONEEQUIPMENTOUTLETNODE,OFFICE_PRIVATE_1_Z5_AIRLOOP
   Return Air Path Node,Inlet Node,2,OFFICE_PRIVATE_1_Z5_RETURNAIR,OFFICE_PRIVATE_1_Z5_AIRLOOP
 Return Air Path,6,STORAGE_1_Z6_RETURNAIRPATH,STORAGE_1_Z6_AIRLOOP
   #Components on Return Air Path,1
   Return Air Path Component,1,AIRLOOPHVAC:ZONEMIXER,STORAGE_1_Z6_RETURNAIRMIXER,STORAGE_1_Z6_AIRLOOP
     #Inlet Nodes on Return Air Path Component,1
     Return Air Path Component Nodes,1,AIRLOOPHVAC:ZONEMIXER,STORAGE_1_Z6_RETURNAIRMIXER,STORAGE_1_Z6_RETURNAIR,STORAGE_1_Z6_ZONEEQUIPMENTOUTLETNODE,STORAGE_1_Z6_AIRLOOP
! <#Nodes on Return Air Path>,<Number of Nodes>
! <Return Air Path Node>,<Node Type>,<Node Count>,<Node Name>,<AirLoopHVAC Name>
   #Nodes on Return Air Path,2
   Return Air Path Node,Outlet Node,1,STORAGE_1_Z6_ZONEEQUIPMENTOUTLETNODE,STORAGE_1_Z6_AIRLOOP
   Return Air Path Node,Inlet Node,2,STORAGE_1_Z6_RETURNAIR,STORAGE_1_Z6_AIRLOOP
 Return Air Path,7,LOBBY_2_Z7_RETURNAIRPATH,LOBBY_2_Z7_AIRLOOP
   #Components on Return Air Path,1
   Return Air Path Component,1,AIRLOOPHVAC:ZONEMIXER,LOBBY_2_Z7_RETURNAIRMIXER,LOBBY_2_Z7_AIRLOOP
     #Inlet Nodes on Return Air Path Component,1
     Return Air Path Component Nodes,1,AIRLOOPHVAC:ZONEMIXER,LOBBY_2_Z7_RETURNAIRMIXER,LOBBY_2_Z7_RETURNAIR,LOBBY_2_Z7_ZONEEQUIPMENTOUTLETNODE,LOBBY_2_Z7_AIRLOOP
! <#Nodes on Return Air Path>,<Number of Nodes>
! <Return Air Path Node>,<Node Type>,<Node Count>,<Node Name>,<AirLoopHVAC Name>
   #Nodes on Return Air Path,2
   Return Air Path Node,Outlet Node,1,LOBBY_2_Z7_ZONEEQUIPMENTOUTLETNODE,LOBBY_2_Z7_AIRLOOP
   Return Air Path Node,Inlet Node,2,LOBBY_2_Z7_RETURNAIR,LOBBY_2_Z7_AIRLOOP
 Return Air Path,8,MECHANICAL_2_Z8_RETURNAIRPATH,MECHANICAL_2_Z8_AIRLOOP
   #Components on Return Air Path,1
   Return Air Path Component,1,AIRLOOPHVAC:ZONEMIXER,MECHANICAL_2_Z8_RETURNAIRMIXER,MECHANICAL_2_Z8_AIRLOOP
     #Inlet Nodes on Return Air Path Component,1
     Return Air Path Component Nodes,1,AIRLOOPHVAC:ZONEMIXER,MECHANICAL_2_Z8_RETURNAIRMIXER,MECHANICAL_2_Z8_RETURNAIR,MECHANICAL_2_Z8_ZONEEQUIPMENTOUTLETNODE,MECHANICAL_2_Z8_AIRLOOP
! <#Nodes on Return Air Path>,<Number of Nodes>
! <Return Air Path Node>,<Node Type>,<Node Count>,<Node Name>,<AirLoopHVAC Name>
   #Nodes on Return Air Path,2
   Return Air Path Node,Outlet Node,1,MECHANICAL_2_Z8_ZONEEQUIPMENTOUTLETNODE,MECHANICAL_2_Z8_AIRLOOP
   Return Air Path Node,Inlet Node,2,MECHANICAL_2_Z8_RETURNAIR,MECHANICAL_2_Z8_AIRLOOP
! ===============================================================
! #Outdoor Air Nodes,<Number of Outdoor Air Nodes>
 #Outdoor Air Nodes,0
! ===============================================================
! <#Component Sets>,<Number of Component Sets>
 #Component Sets,48
! <Component Set>,<Component Set Count>,<Parent Object Type>,<Parent Object Name>,<Component Type>,<Component Name>,<Inlet Node ID>,<Outlet Node ID>,<Description>
 Component Set,1,BRANCH,BREAK_ROOM_0_Z1_MAINBRANCH,COILSYSTEM:COOLING:DX,BREAK_ROOM_0_Z1_COOLINGCOIL,BREAK_ROOM_0_Z1_SUPPLYINLET,BREAK_ROOM_0_Z1_COOLC-HEATCNODE,Air Nodes
 Component Set,2,BRANCH,BREAK_ROOM_0_Z1_MAINBRANCH,COIL:HEATING:ELECTRIC,BREAK_ROOM_0_Z1_HEATINGCOIL,BREAK_ROOM_0_Z1_COOLC-HEATCNODE,BREAK_ROOM_0_Z1_HEATC-FANNODE,Air Nodes
 Component Set,3,BRANCH,BREAK_ROOM_0_Z1_MAINBRANCH,FAN:VARIABLEVOLUME,BREAK_ROOM_0_Z1_SUPPLYFAN,BREAK_ROOM_0_Z1_HEATC-FANNODE,BREAK_ROOM_0_Z1_SUPPLYEQUIPMENTOUTLETNODE,Air Nodes
 Component Set,4,BRANCH,OFFICE_PRIVATE_0_Z2_MAINBRANCH,COILSYSTEM:COOLING:DX,OFFICE_PRIVATE_0_Z2_COOLINGCOIL,OFFICE_PRIVATE_0_Z2_SUPPLYINLET,OFFICE_PRIVATE_0_Z2_COOLC-HEATCNODE,Air Nodes
 Component Set,5,BRANCH,OFFICE_PRIVATE_0_Z2_MAINBRANCH,COIL:HEATING:ELECTRIC,OFFICE_PRIVATE_0_Z2_HEATINGCOIL,OFFICE_PRIVATE_0_Z2_COOLC-HEATCNODE,OFFICE_PRIVATE_0_Z2_HEATC-FANNODE,Air Nodes
 Component Set,6,BRANCH,OFFICE_PRIVATE_0_Z2_MAINBRANCH,FAN:VARIABLEVOLUME,OFFICE_PRIVATE_0_Z2_SUPPLYFAN,OFFICE_PRIVATE_0_Z2_HEATC-FANNODE,OFFICE_PRIVATE_0_Z2_SUPPLYEQUIPMENTOUTLETNODE,Air Nodes
 Component Set,7,BRANCH,STORAGE_0_Z3_MAINBRANCH,COILSYSTEM:COOLING:DX,STORAGE_0_Z3_COOLINGCOIL,STORAGE_0_Z3_SUPPLYINLET,STORAGE_0_Z3_COOLC-HEATCNODE,Air Nodes
 Component Set,8,BRANCH,STORAGE_0_Z3_MAINBRANCH,COIL:HEATING:ELECTRIC,STORAGE_0_Z3_HEATINGCOIL,STORAGE_0_Z3_COOLC-HEATCNODE,STORAGE_0_Z3_HEATC-FANNODE,Air Nodes
 Component Set,9,BRANCH,STORAGE_0_Z3_MAINBRANCH,FAN:VARIABLEVOLUME,STORAGE_0_Z3_SUPPLYFAN,STORAGE_0_Z3_HEATC-FANNODE,STORAGE_0_Z3_SUPPLYEQUIPMENTOUTLETNODE,Air Nodes
 Component Set,10,BRANCH,BREAK_ROOM_1_Z4_MAINBRANCH,COILSYSTEM:COOLING:DX,BREAK_ROOM_1_Z4_COOLINGCOIL,BREAK_ROOM_1_Z4_SUPPLYINLET,BREAK_ROOM_1_Z4_COOLC-HEATCNODE,Air Nodes
 Component Set,11,BRANCH,BREAK_ROOM_1_Z4_MAINBRANCH,COIL:HEATING:ELECTRIC,BREAK_ROOM_1_Z4_HEATINGCOIL,BREAK_ROOM_1_Z4_COOLC-HEATCNODE,BREAK_ROOM_1_Z4_HEATC-FANNODE,Air Nodes
 Component Set,12,BRANCH,BREAK_ROOM_1_Z4_MAINBRANCH,FAN:VARIABLEVOLUME,BREAK_ROOM_1_Z4_SUPPLYFAN,BREAK_ROOM_1_Z4_HEATC-FANNODE,BREAK_ROOM_1_Z4_SUPPLYEQUIPMENTOUTLETNODE,Air Nodes
 Component Set,13,BRANCH,OFFICE_PRIVATE_1_Z5_MAINBRANCH,COILSYSTEM:COOLING:DX,OFFICE_PRIVATE_1_Z5_COOLINGCOIL,OFFICE_PRIVATE_1_Z5_SUPPLYINLET,OFFICE_PRIVATE_1_Z5_COOLC-HEATCNODE,Air Nodes
 Component Set,14,BRANCH,OFFICE_PRIVATE_1_Z5_MAINBRANCH,COIL:HEATING:ELECTRIC,OFFICE_PRIVATE_1_Z5_HEATINGCOIL,OFFICE_PRIVATE_1_Z5_COOLC-HEATCNODE,OFFICE_PRIVATE_1_Z5_HEATC-FANNODE,Air Nodes
 Component Set,15,BRANCH,OFFICE_PRIVATE_1_Z5_MAINBRANCH,FAN:VARIABLEVOLUME,OFFICE_PRIVATE_1_Z5_SUPPLYFAN,OFFICE_PRIVATE_1_Z5_HEATC-FANNODE,OFFICE_PRIVATE_1_Z5_SUPPLYEQUIPMENTOUTLETNODE,Air Nodes
 Component Set,16,BRANCH,STORAGE_1_Z6_MAINBRANCH,COILSYSTEM:COOLING:DX,STORAGE_1_Z6_COOLINGCOIL,STORAGE_1_Z6_SUPPLYINLET,STORAGE_1_Z6_COOLC-HEATCNODE,Air Nodes
 Component Set,17,BRANCH,STORAGE_1_Z6_MAINBRANCH,COIL:HEATING:ELECTRIC,STORAGE_1_Z6_HEATINGCOIL,STORAGE_1_Z6_COOLC-HEATCNODE,STORAGE_1_Z6_HEATC-FANNODE,Air Nodes
 Component Set,18,BRANCH,STORAGE_1_Z6_MAINBRANCH,FAN:VARIABLEVOLUME,STORAGE_1_Z6_SUPPLYFAN,STORAGE_1_Z6_HEATC-FANNODE,STORAGE_1_Z6_SUPPLYEQUIPMENTOUTLETNODE,Air Nodes
 Component Set,19,BRANCH,LOBBY_2_Z7_MAINBRANCH,COILSYSTEM:COOLING:DX,LOBBY_2_Z7_COOLINGCOIL,LOBBY_2_Z7_SUPPLYINLET,LOBBY_2_Z7_COOLC-HEATCNODE,Air Nodes
 Component Set,20,BRANCH,LOBBY_2_Z7_MAINBRANCH,COIL:HEATING:ELECTRIC,LOBBY_2_Z7_HEATINGCOIL,LOBBY_2_Z7_COOLC-HEATCNODE,LOBBY_2_Z7_HEATC-FANNODE,Air Nodes
 Component Set,21,BRANCH,LOBBY_2_Z7_MAINBRANCH,FAN:VARIABLEVOLUME,LOBBY_2_Z7_SUPPLYFAN,LOBBY_2_Z7_HEATC-FANNODE,LOBBY_2_Z7_SUPPLYEQUIPMENTOUTLETNODE,Air Nodes
 Component Set,22,BRANCH,MECHANICAL_2_Z8_MAINBRANCH,COILSYSTEM:COOLING:DX,MECHANICAL_2_Z8_COOLINGCOIL,MECHANICAL_2_Z8_SUPPLYINLET,MECHANICAL_2_Z8_COOLC-HEATCNODE,Air Nodes
 Component Set,23,BRANCH,MECHANICAL_2_Z8_MAINBRANCH,COIL:HEATING:ELECTRIC,MECHANICAL_2_Z8_HEATINGCOIL,MECHANICAL_2_Z8_COOLC-HEATCNODE,MECHANICAL_2_Z8_HEATC-FANNODE,Air Nodes
 Component Set,24,BRANCH,MECHANICAL_2_Z8_MAINBRANCH,FAN:VARIABLEVOLUME,MECHANICAL_2_Z8_SUPPLYFAN,MECHANICAL_2_Z8_HEATC-FANNODE,MECHANICAL_2_Z8_SUPPLYEQUIPMENTOUTLETNODE,Air Nodes
 Component Set,25,ZONEHVAC:AIRDISTRIBUTIONUNIT,BREAK_ROOM_0_Z1_ADU,AIRTERMINAL:SINGLEDUCT:VAV:REHEAT,BREAK_ROOM_0_Z1_VAVTERMINAL,BREAK_ROOM_0_Z1_TERMINALINLET,BREAK_ROOM_0_Z1_ADUOUTLET,Air Nodes
 Component Set,26,ZONEHVAC:AIRDISTRIBUTIONUNIT,OFFICE_PRIVATE_0_Z2_ADU,AIRTERMINAL:SINGLEDUCT:VAV:REHEAT,OFFICE_PRIVATE_0_Z2_VAVTERMINAL,OFFICE_PRIVATE_0_Z2_TERMINALINLET,OFFICE_PRIVATE_0_Z2_ADUOUTLET,Air Nodes
 Component Set,27,ZONEHVAC:AIRDISTRIBUTIONUNIT,STORAGE_0_Z3_ADU,AIRTERMINAL:SINGLEDUCT:VAV:REHEAT,STORAGE_0_Z3_VAVTERMINAL,STORAGE_0_Z3_TERMINALINLET,STORAGE_0_Z3_ADUOUTLET,Air Nodes
 Component Set,28,ZONEHVAC:AIRDISTRIBUTIONUNIT,BREAK_ROOM_1_Z4_ADU,AIRTERMINAL:SINGLEDUCT:VAV:REHEAT,BREAK_ROOM_1_Z4_VAVTERMINAL,BREAK_ROOM_1_Z4_TERMINALINLET,BREAK_ROOM_1_Z4_ADUOUTLET,Air Nodes
 Component Set,29,ZONEHVAC:AIRDISTRIBUTIONUNIT,OFFICE_PRIVATE_1_Z5_ADU,AIRTERMINAL:SINGLEDUCT:VAV:REHEAT,OFFICE_PRIVATE_1_Z5_VAVTERMINAL,OFFICE_PRIVATE_1_Z5_TERMINALINLET,OFFICE_PRIVATE_1_Z5_ADUOUTLET,Air Nodes
 Component Set,30,ZONEHVAC:AIRDISTRIBUTIONUNIT,STORAGE_1_Z6_ADU,AIRTERMINAL:SINGLEDUCT:VAV:REHEAT,STORAGE_1_Z6_VAVTERMINAL,STORAGE_1_Z6_TERMINALINLET,STORAGE_1_Z6_ADUOUTLET,Air Nodes
 Component Set,31,ZONEHVAC:AIRDISTRIBUTIONUNIT,LOBBY_2_Z7_ADU,AIRTERMINAL:SINGLEDUCT:VAV:REHEAT,LOBBY_2_Z7_VAVTERMINAL,LOBBY_2_Z7_TERMINALINLET,LOBBY_2_Z7_ADUOUTLET,Air Nodes
 Component Set,32,ZONEHVAC:AIRDISTRIBUTIONUNIT,MECHANICAL_2_Z8_ADU,AIRTERMINAL:SINGLEDUCT:VAV:REHEAT,MECHANICAL_2_Z8_VAVTERMINAL,MECHANICAL_2_Z8_TERMINALINLET,MECHANICAL_2_Z8_ADUOUTLET,Air Nodes
 Component Set,33,AIRTERMINAL:SINGLEDUCT:VAV:REHEAT,BREAK_ROOM_0_Z1_VAVTERMINAL,COIL:HEATING:ELECTRIC,BREAK_ROOM_0_Z1_REHEATCOIL,BREAK_ROOM_0_Z1_TERMINALOUTLET,BREAK_ROOM_0_Z1_ADUOUTLET,Air Nodes
 Component Set,34,AIRTERMINAL:SINGLEDUCT:VAV:REHEAT,OFFICE_PRIVATE_0_Z2_VAVTERMINAL,COIL:HEATING:ELECTRIC,OFFICE_PRIVATE_0_Z2_REHEATCOIL,OFFICE_PRIVATE_0_Z2_TERMINALOUTLET,OFFICE_PRIVATE_0_Z2_ADUOUTLET,Air Nodes
 Component Set,35,AIRTERMINAL:SINGLEDUCT:VAV:REHEAT,STORAGE_0_Z3_VAVTERMINAL,COIL:HEATING:ELECTRIC,STORAGE_0_Z3_REHEATCOIL,STORAGE_0_Z3_TERMINALOUTLET,STORAGE_0_Z3_ADUOUTLET,Air Nodes
 Component Set,36,AIRTERMINAL:SINGLEDUCT:VAV:REHEAT,BREAK_ROOM_1_Z4_VAVTERMINAL,COIL:HEATING:ELECTRIC,BREAK_ROOM_1_Z4_REHEATCOIL,BREAK_ROOM_1_Z4_TERMINALOUTLET,BREAK_ROOM_1_Z4_ADUOUTLET,Air Nodes
 Component Set,37,AIRTERMINAL:SINGLEDUCT:VAV:REHEAT,OFFICE_PRIVATE_1_Z5_VAVTERMINAL,COIL:HEATING:ELECTRIC,OFFICE_PRIVATE_1_Z5_REHEATCOIL,OFFICE_PRIVATE_1_Z5_TERMINALOUTLET,OFFICE_PRIVATE_1_Z5_ADUOUTLET,Air Nodes
 Component Set,38,AIRTERMINAL:SINGLEDUCT:VAV:REHEAT,STORAGE_1_Z6_VAVTERMINAL,COIL:HEATING:ELECTRIC,STORAGE_1_Z6_REHEATCOIL,STORAGE_1_Z6_TERMINALOUTLET,STORAGE_1_Z6_ADUOUTLET,Air Nodes
 Component Set,39,AIRTERMINAL:SINGLEDUCT:VAV:REHEAT,LOBBY_2_Z7_VAVTERMINAL,COIL:HEATING:ELECTRIC,LOBBY_2_Z7_REHEATCOIL,LOBBY_2_Z7_TERMINALOUTLET,LOBBY_2_Z7_ADUOUTLET,Air Nodes
 Component Set,40,AIRTERMINAL:SINGLEDUCT:VAV:REHEAT,MECHANICAL_2_Z8_VAVTERMINAL,COIL:HEATING:ELECTRIC,MECHANICAL_2_Z8_REHEATCOIL,MECHANICAL_2_Z8_TERMINALOUTLET,MECHANICAL_2_Z8_ADUOUTLET,Air Nodes
 Component Set,41,COILSYSTEM:COOLING:DX,BREAK_ROOM_0_Z1_COOLINGCOIL,COIL:COOLING:DX:SINGLESPEED,BREAK_ROOM_0_Z1_COOLINGCOILDX,BREAK_ROOM_0_Z1_SUPPLYINLET,BREAK_ROOM_0_Z1_COOLC-HEATCNODE,Air Nodes
 Component Set,42,COILSYSTEM:COOLING:DX,OFFICE_PRIVATE_0_Z2_COOLINGCOIL,COIL:COOLING:DX:SINGLESPEED,OFFICE_PRIVATE_0_Z2_COOLINGCOILDX,OFFICE_PRIVATE_0_Z2_SUPPLYINLET,OFFICE_PRIVATE_0_Z2_COOLC-HEATCNODE,Air Nodes
 Component Set,43,COILSYSTEM:COOLING:DX,STORAGE_0_Z3_COOLINGCOIL,COIL:COOLING:DX:SINGLESPEED,STORAGE_0_Z3_COOLINGCOILDX,STORAGE_0_Z3_SUPPLYINLET,STORAGE_0_Z3_COOLC-HEATCNODE,Air Nodes
 Component Set,44,COILSYSTEM:COOLING:DX,BREAK_ROOM_1_Z4_COOLINGCOIL,COIL:COOLING:DX:SINGLESPEED,BREAK_ROOM_1_Z4_COOLINGCOILDX,BREAK_ROOM_1_Z4_SUPPLYINLET,BREAK_ROOM_1_Z4_COOLC-HEATCNODE,Air Nodes
 Component Set,45,COILSYSTEM:COOLING:DX,OFFICE_PRIVATE_1_Z5_COOLINGCOIL,COIL:COOLING:DX:SINGLESPEED,OFFICE_PRIVATE_1_Z5_COOLINGCOILDX,OFFICE_PRIVATE_1_Z5_SUPPLYINLET,OFFICE_PRIVATE_1_Z5_COOLC-HEATCNODE,Air Nodes
 Component Set,46,COILSYSTEM:COOLING:DX,STORAGE_1_Z6_COOLINGCOIL,COIL:COOLING:DX:SINGLESPEED,STORAGE_1_Z6_COOLINGCOILDX,STORAGE_1_Z6_SUPPLYINLET,STORAGE_1_Z6_COOLC-HEATCNODE,Air Nodes
 Component Set,47,COILSYSTEM:COOLING:DX,LOBBY_2_Z7_COOLINGCOIL,COIL:COOLING:DX:SINGLESPEED,LOBBY_2_Z7_COOLINGCOILDX,LOBBY_2_Z7_SUPPLYINLET,LOBBY_2_Z7_COOLC-HEATCNODE,Air Nodes
 Component Set,48,COILSYSTEM:COOLING:DX,MECHANICAL_2_Z8_COOLINGCOIL,COIL:COOLING:DX:SINGLESPEED,MECHANICAL_2_Z8_COOLINGCOILDX,MECHANICAL_2_Z8_SUPPLYINLET,MECHANICAL_2_Z8_COOLC-HEATCNODE,Air Nodes
! ===============================================================
! <# Plant Loops>,<Number of Plant Loops>
 #Plant Loops,0
! <Plant Loop>,<Plant Loop Name>,<Loop Type>,<Inlet Node Name>,<Outlet Node Name>,<Branch List>,<Connector List>
! <Plant Loop Connector>,<Connector Type>,<Connector Name>,<Loop Name>,<Loop Type>,<Number of Inlets/Outlets>
! <Plant Loop Connector Branches>,<Connector Node Count>,<Connector Type>,<Connector Name>,<Inlet Branch>,<Outlet Branch>,<Loop Name>,<Loop Type>
! <Plant Loop Connector Nodes>,<Connector Node Count>,<Connector Type>,<Connector Name>,<Inlet Node>,<Outlet Node>,<Loop Name>,<Loop Type>
! <Plant Loop Supply Connection>,<Plant Loop Name>,<Supply Side Outlet Node Name>,<Demand Side Inlet Node Name>
! <Plant Loop Return Connection>,<Plant Loop Name>,<Demand Side Outlet Node Name>,<Supply Side Inlet Node Name>
! ===============================================================
! <# Condenser Loops>,<Number of Condenser Loops>
 #Condenser Loops,0
! <Condenser Loop>,<Condenser Loop Name>,<Loop Type>,<Inlet Node Name>,<Outlet Node Name>,<Branch List>,<Connector List>
! <Condenser Loop Connector>,<Connector Type>,<Connector Name>,<Loop Name>,<Loop Type>,<Number of Inlets/Outlets>
! <Condenser Loop Connector Branches>,<Connector Node Count>,<Connector Type>,<Connector Name>,<Inlet Branch>,<Outlet Branch>,<Loop Name>,<Loop Type>
! <Condenser Loop Connector Nodes>,<Connector Node Count>,<Connector Type>,<Connector Name>,<Inlet Node>,<Outlet Node>,<Loop Name>,<Loop Type>
! <Condenser Loop Supply Connection>,<Condenser Loop Name>,<Supply Side Outlet Node Name>,<Demand Side Inlet Node Name>
! <Condenser Loop Return Connection>,<Condenser Loop Name>,<Demand Side Outlet Node Name>,<Supply Side Inlet Node Name>
! ===============================================================
! <# Controlled Zones>,<Number of Controlled Zones>
 #Controlled Zones,8
! <Controlled Zone>,<Controlled Zone Name>,<Equip List Name>,<Control List Name>,<Zone Node Name>,<# Inlet Nodes>,<# Exhaust Nodes>,<# Return Nodes>
! <Controlled Zone Inlet>,<Inlet Node Count>,<Controlled Zone Name>,<Supply Air Inlet Node Name>,<SD Sys:Cooling/Heating [DD:Cooling] Inlet Node Name>,<DD Sys:Heating Inlet Node Name>
! <Controlled Zone Exhaust>,<Exhaust Node Count>,<Controlled Zone Name>,<Exhaust Air Node Name>
 Controlled Zone,BREAK_ROOM_0,BREAK_ROOM_0_Z1 EQUIPMENT,,BREAK_ROOM_0 AIR NODE,1,0,1
   Controlled Zone Inlet,1,BREAK_ROOM_0,BREAK_ROOM_0_Z1_ADUOUTLET,BREAK_ROOM_0_Z1_TERMINALINLET,N/A
   Controlled Zone Return,1,BREAK_ROOM_0,BREAK_ROOM_0_Z1_RETURNAIR
 Controlled Zone,OFFICE_PRIVATE_0,OFFICE_PRIVATE_0_Z2 EQUIPMENT,,OFFICE_PRIVATE_0 AIR NODE,1,0,1
   Controlled Zone Inlet,1,OFFICE_PRIVATE_0,OFFICE_PRIVATE_0_Z2_ADUOUTLET,OFFICE_PRIVATE_0_Z2_TERMINALINLET,N/A
   Controlled Zone Return,1,OFFICE_PRIVATE_0,OFFICE_PRIVATE_0_Z2_RETURNAIR
 Controlled Zone,STORAGE_0,STORAGE_0_Z3 EQUIPMENT,,STORAGE_0 AIR NODE,1,0,1
   Controlled Zone Inlet,1,STORAGE_0,STORAGE_0_Z3_ADUOUTLET,STORAGE_0_Z3_TERMINALINLET,N/A
   Controlled Zone Return,1,STORAGE_0,STORAGE_0_Z3_RETURNAIR
 Controlled Zone,BREAK_ROOM_1,BREAK_ROOM_1_Z4 EQUIPMENT,,BREAK_ROOM_1 AIR NODE,1,0,1
   Controlled Zone Inlet,1,BREAK_ROOM_1,BREAK_ROOM_1_Z4_ADUOUTLET,BREAK_ROOM_1_Z4_TERMINALINLET,N/A
   Controlled Zone Return,1,BREAK_ROOM_1,BREAK_ROOM_1_Z4_RETURNAIR
 Controlled Zone,OFFICE_PRIVATE_1,OFFICE_PRIVATE_1_Z5 EQUIPMENT,,OFFICE_PRIVATE_1 AIR NODE,1,0,1
   Controlled Zone Inlet,1,OFFICE_PRIVATE_1,OFFICE_PRIVATE_1_Z5_ADUOUTLET,OFFICE_PRIVATE_1_Z5_TERMINALINLET,N/A
   Controlled Zone Return,1,OFFICE_PRIVATE_1,OFFICE_PRIVATE_1_Z5_RETURNAIR
 Controlled Zone,STORAGE_1,STORAGE_1_Z6 EQUIPMENT,,STORAGE_1 AIR NODE,1,0,1
   Controlled Zone Inlet,1,STORAGE_1,STORAGE_1_Z6_ADUOUTLET,STORAGE_1_Z6_TERMINALINLET,N/A
   Controlled Zone Return,1,STORAGE_1,STORAGE_1_Z6_RETURNAIR
 Controlled Zone,LOBBY_2,LOBBY_2_Z7 EQUIPMENT,,LOBBY_2 AIR NODE,1,0,1
   Controlled Zone Inlet,1,LOBBY_2,LOBBY_2_Z7_ADUOUTLET,LOBBY_2_Z7_TERMINALINLET,N/A
   Controlled Zone Return,1,LOBBY_2,LOBBY_2_Z7_RETURNAIR
 Controlled Zone,MECHANICAL_2,MECHANICAL_2_Z8 EQUIPMENT,,MECHANICAL_2 AIR NODE,1,0,1
   Controlled Zone Inlet,1,MECHANICAL_2,MECHANICAL_2_Z8_ADUOUTLET,MECHANICAL_2_Z8_TERMINALINLET,N/A
   Controlled Zone Return,1,MECHANICAL_2,MECHANICAL_2_Z8_RETURNAIR
! ===============================================================
! <#Zone Equipment Lists>,<Number of Zone Equipment Lists>
 #Zone Equipment Lists,8
! <Zone Equipment List>,<Zone Equipment List Count>,<Zone Equipment List Name>,<Zone Name>,<Number of Components>
! <Zone Equipment Component>,<Component Count>,<Component Type>,<Component Name>,<Zone Name>,<Heating Priority>,<Cooling Priority>
 Zone Equipment List,1,BREAK_ROOM_0_Z1 EQUIPMENT,BREAK_ROOM_0,1
   Zone Equipment Component,1,ZONEHVAC:AIRDISTRIBUTIONUNIT,BREAK_ROOM_0_Z1_ADU,BREAK_ROOM_0,1,1
 Zone Equipment List,2,OFFICE_PRIVATE_0_Z2 EQUIPMENT,OFFICE_PRIVATE_0,1
   Zone Equipment Component,1,ZONEHVAC:AIRDISTRIBUTIONUNIT,OFFICE_PRIVATE_0_Z2_ADU,OFFICE_PRIVATE_0,1,1
 Zone Equipment List,3,STORAGE_0_Z3 EQUIPMENT,STORAGE_0,1
   Zone Equipment Component,1,ZONEHVAC:AIRDISTRIBUTIONUNIT,STORAGE_0_Z3_ADU,STORAGE_0,1,1
 Zone Equipment List,4,BREAK_ROOM_1_Z4 EQUIPMENT,BREAK_ROOM_1,1
   Zone Equipment Component,1,ZONEHVAC:AIRDISTRIBUTIONUNIT,BREAK_ROOM_1_Z4_ADU,BREAK_ROOM_1,1,1
 Zone Equipment List,5,OFFICE_PRIVATE_1_Z5 EQUIPMENT,OFFICE_PRIVATE_1,1
   Zone Equipment Component,1,ZONEHVAC:AIRDISTRIBUTIONUNIT,OFFICE_PRIVATE_1_Z5_ADU,OFFICE_PRIVATE_1,1,1
 Zone Equipment List,6,STORAGE_1_Z6 EQUIPMENT,STORAGE_1,1
   Zone Equipment Component,1,ZONEHVAC:AIRDISTRIBUTIONUNIT,STORAGE_1_Z6_ADU,STORAGE_1,1,1
 Zone Equipment List,7,LOBBY_2_Z7 EQUIPMENT,LOBBY_2,1
   Zone Equipment Component,1,ZONEHVAC:AIRDISTRIBUTIONUNIT,LOBBY_2_Z7_ADU,LOBBY_2,1,1
 Zone Equipment List,8,MECHANICAL_2_Z8 EQUIPMENT,MECHANICAL_2,1
   Zone Equipment Component,1,ZONEHVAC:AIRDISTRIBUTIONUNIT,MECHANICAL_2_Z8_ADU,MECHANICAL_2,1,1
! ===============================================================
! <#AirLoopHVACs>,<Number of AirLoopHVACs>
 #AirLoopHVACs,8
! <AirLoopHVAC>,<Air Loop Name>,<# Return Nodes>,<# Supply Nodes>,<# Zones Cooled>,<# Zones Heated>,<Outdoor Air Used>
! <AirLoop Return Connections>,<Connection Count>,<AirLoopHVAC Name>,<Zn Eqp Return Node #>,<Zn Eqp Return Node Name>,<AirLoop Return Node #>,<Air Loop Return Node Name>
! <AirLoop Supply Connections>,<Connection Count>,<AirLoopHVAC Name>,<Zn Eqp Supply Node #>,<Zn Eqp Supply Node Name>,<AirLoop Supply Node #>,<Air Loop Supply Node Name>
! <Cooled Zone Info>,<Cooled Zone Count>,<Cooled Zone Name>,<Cooled Zone Inlet Node #>,<Cooled Zone Inlet Node Name>,<AirLoopHVAC Name>
! <Heated Zone Info>,<Heated Zone Count>,<Heated Zone Name>,<Heated Zone Inlet Node #>,<Heated Zone Inlet Node Name>,<AirLoopHVAC Name>
! <Outdoor Air Connections>,<OA Inlet Node #>,<OA Return Air Inlet Node Name>,<OA Outlet Node #>,<OA Mixed Air Outlet Node Name>,<AirLoopHVAC Name>
! <AirLoopHVAC Connector>,<Connector Type>,<Connector Name>,<Loop Name>,<Loop Type>,<Number of Inlets/Outlets>
! <AirLoopHVAC Connector Branches>,<Connector Node Count>,<Connector Type>,<Connector Name>,<Inlet Branch>,<Outlet Branch>,<Loop Name>,<Loop Type>
! <AirLoopHVAC Connector Nodes>,<Connector Node Count>,<Connector Type>,<Connector Name>,<Inlet Node>,<Outlet Node>,<Loop Name>,<Loop Type>
 AirLoopHVAC,BREAK_ROOM_0_Z1_AIRLOOP,1,1,1,0,No
   AirLoop Return Connections,1,BREAK_ROOM_0_Z1_AIRLOOP,65,BREAK_ROOM_0_Z1_ZONEEQUIPMENTOUTLETNODE,9,BREAK_ROOM_0_Z1_SUPPLYINLET
   AirLoop Supply Connections,1,BREAK_ROOM_0_Z1_AIRLOOP,57,BREAK_ROOM_0_Z1_ZONEEQUIPMENTINLET,12,BREAK_ROOM_0_Z1_SUPPLYEQUIPMENTOUTLETNODE
   Cooled Zone Info,1,BREAK_ROOM_0,1,BREAK_ROOM_0_Z1_ADUOUTLET,BREAK_ROOM_0_Z1_AIRLOOP
 AirLoopHVAC,OFFICE_PRIVATE_0_Z2_AIRLOOP,1,1,1,0,No
   AirLoop Return Connections,1,OFFICE_PRIVATE_0_Z2_AIRLOOP,66,OFFICE_PRIVATE_0_Z2_ZONEEQUIPMENTOUTLETNODE,13,OFFICE_PRIVATE_0_Z2_SUPPLYINLET
   AirLoop Supply Connections,1,OFFICE_PRIVATE_0_Z2_AIRLOOP,58,OFFICE_PRIVATE_0_Z2_ZONEEQUIPMENTINLET,16,OFFICE_PRIVATE_0_Z2_SUPPLYEQUIPMENTOUTLETNODE
   Cooled Zone Info,1,OFFICE_PRIVATE_0,2,OFFICE_PRIVATE_0_Z2_ADUOUTLET,OFFICE_PRIVATE_0_Z2_AIRLOOP
 AirLoopHVAC,STORAGE_0_Z3_AIRLOOP,1,1,1,0,No
   AirLoop Return Connections,1,STORAGE_0_Z3_AIRLOOP,67,STORAGE_0_Z3_ZONEEQUIPMENTOUTLETNODE,17,STORAGE_0_Z3_SUPPLYINLET
   AirLoop Supply Connections,1,STORAGE_0_Z3_AIRLOOP,59,STORAGE_0_Z3_ZONEEQUIPMENTINLET,20,STORAGE_0_Z3_SUPPLYEQUIPMENTOUTLETNODE
   Cooled Zone Info,1,STORAGE_0,3,STORAGE_0_Z3_ADUOUTLET,STORAGE_0_Z3_AIRLOOP
 AirLoopHVAC,BREAK_ROOM_1_Z4_AIRLOOP,1,1,1,0,No
   AirLoop Return Connections,1,BREAK_ROOM_1_Z4_AIRLOOP,68,BREAK_ROOM_1_Z4_ZONEEQUIPMENTOUTLETNODE,21,BREAK_ROOM_1_Z4_SUPPLYINLET
   AirLoop Supply Connections,1,BREAK_ROOM_1_Z4_AIRLOOP,60,BREAK_ROOM_1_Z4_ZONEEQUIPMENTINLET,24,BREAK_ROOM_1_Z4_SUPPLYEQUIPMENTOUTLETNODE
   Cooled Zone Info,1,BREAK_ROOM_1,4,BREAK_ROOM_1_Z4_ADUOUTLET,BREAK_ROOM_1_Z4_AIRLOOP
 AirLoopHVAC,OFFICE_PRIVATE_1_Z5_AIRLOOP,1,1,1,0,No
   AirLoop Return Connections,1,OFFICE_PRIVATE_1_Z5_AIRLOOP,69,OFFICE_PRIVATE_1_Z5_ZONEEQUIPMENTOUTLETNODE,25,OFFICE_PRIVATE_1_Z5_SUPPLYINLET
   AirLoop Supply Connections,1,OFFICE_PRIVATE_1_Z5_AIRLOOP,61,OFFICE_PRIVATE_1_Z5_ZONEEQUIPMENTINLET,28,OFFICE_PRIVATE_1_Z5_SUPPLYEQUIPMENTOUTLETNODE
   Cooled Zone Info,1,OFFICE_PRIVATE_1,5,OFFICE_PRIVATE_1_Z5_ADUOUTLET,OFFICE_PRIVATE_1_Z5_AIRLOOP
 AirLoopHVAC,STORAGE_1_Z6_AIRLOOP,1,1,1,0,No
   AirLoop Return Connections,1,STORAGE_1_Z6_AIRLOOP,70,STORAGE_1_Z6_ZONEEQUIPMENTOUTLETNODE,29,STORAGE_1_Z6_SUPPLYINLET
   AirLoop Supply Connections,1,STORAGE_1_Z6_AIRLOOP,62,STORAGE_1_Z6_ZONEEQUIPMENTINLET,32,STORAGE_1_Z6_SUPPLYEQUIPMENTOUTLETNODE
   Cooled Zone Info,1,STORAGE_1,6,STORAGE_1_Z6_ADUOUTLET,STORAGE_1_Z6_AIRLOOP
 AirLoopHVAC,LOBBY_2_Z7_AIRLOOP,1,1,1,0,No
   AirLoop Return Connections,1,LOBBY_2_Z7_AIRLOOP,71,LOBBY_2_Z7_ZONEEQUIPMENTOUTLETNODE,33,LOBBY_2_Z7_SUPPLYINLET
   AirLoop Supply Connections,1,LOBBY_2_Z7_AIRLOOP,63,LOBBY_2_Z7_ZONEEQUIPMENTINLET,36,LOBBY_2_Z7_SUPPLYEQUIPMENTOUTLETNODE
   Cooled Zone Info,1,LOBBY_2,7,LOBBY_2_Z7_ADUOUTLET,LOBBY_2_Z7_AIRLOOP
 AirLoopHVAC,MECHANICAL_2_Z8_AIRLOOP,1,1,1,0,No
   AirLoop Return Connections,1,MECHANICAL_2_Z8_AIRLOOP,72,MECHANICAL_2_Z8_ZONEEQUIPMENTOUTLETNODE,37,MECHANICAL_2_Z8_SUPPLYINLET
   AirLoop Supply Connections,1,MECHANICAL_2_Z8_AIRLOOP,64,MECHANICAL_2_Z8_ZONEEQUIPMENTINLET,40,MECHANICAL_2_Z8_SUPPLYEQUIPMENTOUTLETNODE
   Cooled Zone Info,1,MECHANICAL_2,8,MECHANICAL_2_Z8_ADUOUTLET,MECHANICAL_2_Z8_AIRLOOP
! ===============================================================
! <#Parent Node Connections>,<Number of Parent Node Connections>
 #Parent Node Connections,120
! <Parent Node Connection>,<Node Name>,<Node ObjectType>,<Node ObjectName>,<Node ConnectionType>,<Node FluidStream>
 Parent Node Connection,BREAK_ROOM_0_Z1_SUPPLYINLET,BRANCH,BREAK_ROOM_0_Z1_MAINBRANCH,Inlet,1
 Parent Node Connection,BREAK_ROOM_0_Z1_COOLC-HEATCNODE,BRANCH,BREAK_ROOM_0_Z1_MAINBRANCH,Internal,1
 Parent Node Connection,BREAK_ROOM_0_Z1_HEATC-FANNODE,BRANCH,BREAK_ROOM_0_Z1_MAINBRANCH,Internal,1
 Parent Node Connection,BREAK_ROOM_0_Z1_SUPPLYEQUIPMENTOUTLETNODE,BRANCH,BREAK_ROOM_0_Z1_MAINBRANCH,Outlet,1
 Parent Node Connection,OFFICE_PRIVATE_0_Z2_SUPPLYINLET,BRANCH,OFFICE_PRIVATE_0_Z2_MAINBRANCH,Inlet,1
 Parent Node Connection,OFFICE_PRIVATE_0_Z2_COOLC-HEATCNODE,BRANCH,OFFICE_PRIVATE_0_Z2_MAINBRANCH,Internal,1
 Parent Node Connection,OFFICE_PRIVATE_0_Z2_HEATC-FANNODE,BRANCH,OFFICE_PRIVATE_0_Z2_MAINBRANCH,Internal,1
 Parent Node Connection,OFFICE_PRIVATE_0_Z2_SUPPLYEQUIPMENTOUTLETNODE,BRANCH,OFFICE_PRIVATE_0_Z2_MAINBRANCH,Outlet,1
 Parent Node Connection,STORAGE_0_Z3_SUPPLYINLET,BRANCH,STORAGE_0_Z3_MAINBRANCH,Inlet,1
 Parent Node Connection,STORAGE_0_Z3_COOLC-HEATCNODE,BRANCH,STORAGE_0_Z3_MAINBRANCH,Internal,1
 Parent Node Connection,STORAGE_0_Z3_HEATC-FANNODE,BRANCH,STORAGE_0_Z3_MAINBRANCH,Internal,1
 Parent Node Connection,STORAGE_0_Z3_SUPPLYEQUIPMENTOUTLETNODE,BRANCH,STORAGE_0_Z3_MAINBRANCH,Outlet,1
 Parent Node Connection,BREAK_ROOM_1_Z4_SUPPLYINLET,BRANCH,BREAK_ROOM_1_Z4_MAINBRANCH,Inlet,1
 Parent Node Connection,BREAK_ROOM_1_Z4_COOLC-HEATCNODE,BRANCH,BREAK_ROOM_1_Z4_MAINBRANCH,Internal,1
 Parent Node Connection,BREAK_ROOM_1_Z4_HEATC-FANNODE,BRANCH,BREAK_ROOM_1_Z4_MAINBRANCH,Internal,1
 Parent Node Connection,BREAK_ROOM_1_Z4_SUPPLYEQUIPMENTOUTLETNODE,BRANCH,BREAK_ROOM_1_Z4_MAINBRANCH,Outlet,1
 Parent Node Connection,OFFICE_PRIVATE_1_Z5_SUPPLYINLET,BRANCH,OFFICE_PRIVATE_1_Z5_MAINBRANCH,Inlet,1
 Parent Node Connection,OFFICE_PRIVATE_1_Z5_COOLC-HEATCNODE,BRANCH,OFFICE_PRIVATE_1_Z5_MAINBRANCH,Internal,1
 Parent Node Connection,OFFICE_PRIVATE_1_Z5_HEATC-FANNODE,BRANCH,OFFICE_PRIVATE_1_Z5_MAINBRANCH,Internal,1
 Parent Node Connection,OFFICE_PRIVATE_1_Z5_SUPPLYEQUIPMENTOUTLETNODE,BRANCH,OFFICE_PRIVATE_1_Z5_MAINBRANCH,Outlet,1
 Parent Node Connection,STORAGE_1_Z6_SUPPLYINLET,BRANCH,STORAGE_1_Z6_MAINBRANCH,Inlet,1
 Parent Node Connection,STORAGE_1_Z6_COOLC-HEATCNODE,BRANCH,STORAGE_1_Z6_MAINBRANCH,Internal,1
 Parent Node Connection,STORAGE_1_Z6_HEATC-FANNODE,BRANCH,STORAGE_1_Z6_MAINBRANCH,Internal,1
 Parent Node Connection,STORAGE_1_Z6_SUPPLYEQUIPMENTOUTLETNODE,BRANCH,STORAGE_1_Z6_MAINBRANCH,Outlet,1
 Parent Node Connection,LOBBY_2_Z7_SUPPLYINLET,BRANCH,LOBBY_2_Z7_MAINBRANCH,Inlet,1
 Parent Node Connection,LOBBY_2_Z7_COOLC-HEATCNODE,BRANCH,LOBBY_2_Z7_MAINBRANCH,Internal,1
 Parent Node Connection,LOBBY_2_Z7_HEATC-FANNODE,BRANCH,LOBBY_2_Z7_MAINBRANCH,Internal,1
 Parent Node Connection,LOBBY_2_Z7_SUPPLYEQUIPMENTOUTLETNODE,BRANCH,LOBBY_2_Z7_MAINBRANCH,Outlet,1
 Parent Node Connection,MECHANICAL_2_Z8_SUPPLYINLET,BRANCH,MECHANICAL_2_Z8_MAINBRANCH,Inlet,1
 Parent Node Connection,MECHANICAL_2_Z8_COOLC-HEATCNODE,BRANCH,MECHANICAL_2_Z8_MAINBRANCH,Internal,1
 Parent Node Connection,MECHANICAL_2_Z8_HEATC-FANNODE,BRANCH,MECHANICAL_2_Z8_MAINBRANCH,Internal,1
 Parent Node Connection,MECHANICAL_2_Z8_SUPPLYEQUIPMENTOUTLETNODE,BRANCH,MECHANICAL_2_Z8_MAINBRANCH,Outlet,1
 Parent Node Connection,BREAK_ROOM_0_Z1_ZONEEQUIPMENTINLET,AIRLOOPHVAC:SUPPLYPATH,BREAK_ROOM_0_Z1,Inlet,1
 Parent Node Connection,OFFICE_PRIVATE_0_Z2_ZONEEQUIPMENTINLET,AIRLOOPHVAC:SUPPLYPATH,OFFICE_PRIVATE_0_Z2,Inlet,1
 Parent Node Connection,STORAGE_0_Z3_ZONEEQUIPMENTINLET,AIRLOOPHVAC:SUPPLYPATH,STORAGE_0_Z3,Inlet,1
 Parent Node Connection,BREAK_ROOM_1_Z4_ZONEEQUIPMENTINLET,AIRLOOPHVAC:SUPPLYPATH,BREAK_ROOM_1_Z4,Inlet,1
 Parent Node Connection,OFFICE_PRIVATE_1_Z5_ZONEEQUIPMENTINLET,AIRLOOPHVAC:SUPPLYPATH,OFFICE_PRIVATE_1_Z5,Inlet,1
 Parent Node Connection,STORAGE_1_Z6_ZONEEQUIPMENTINLET,AIRLOOPHVAC:SUPPLYPATH,STORAGE_1_Z6,Inlet,1
 Parent Node Connection,LOBBY_2_Z7_ZONEEQUIPMENTINLET,AIRLOOPHVAC:SUPPLYPATH,LOBBY_2_Z7,Inlet,1
 Parent Node Connection,MECHANICAL_2_Z8_ZONEEQUIPMENTINLET,AIRLOOPHVAC:SUPPLYPATH,MECHANICAL_2_Z8,Inlet,1
 Parent Node Connection,BREAK_ROOM_0_Z1_ZONEEQUIPMENTOUTLETNODE,AIRLOOPHVAC:RETURNPATH,BREAK_ROOM_0_Z1_RETURNAIRPATH,Outlet,1
 Parent Node Connection,OFFICE_PRIVATE_0_Z2_ZONEEQUIPMENTOUTLETNODE,AIRLOOPHVAC:RETURNPATH,OFFICE_PRIVATE_0_Z2_RETURNAIRPATH,Outlet,1
 Parent Node Connection,STORAGE_0_Z3_ZONEEQUIPMENTOUTLETNODE,AIRLOOPHVAC:RETURNPATH,STORAGE_0_Z3_RETURNAIRPATH,Outlet,1
 Parent Node Connection,BREAK_ROOM_1_Z4_ZONEEQUIPMENTOUTLETNODE,AIRLOOPHVAC:RETURNPATH,BREAK_ROOM_1_Z4_RETURNAIRPATH,Outlet,1
 Parent Node Connection,OFFICE_PRIVATE_1_Z5_ZONEEQUIPMENTOUTLETNODE,AIRLOOPHVAC:RETURNPATH,OFFICE_PRIVATE_1_Z5_RETURNAIRPATH,Outlet,1
 Parent Node Connection,STORAGE_1_Z6_ZONEEQUIPMENTOUTLETNODE,AIRLOOPHVAC:RETURNPATH,STORAGE_1_Z6_RETURNAIRPATH,Outlet,1
 Parent Node Connection,LOBBY_2_Z7_ZONEEQUIPMENTOUTLETNODE,AIRLOOPHVAC:RETURNPATH,LOBBY_2_Z7_RETURNAIRPATH,Outlet,1
 Parent Node Connection,MECHANICAL_2_Z8_ZONEEQUIPMENTOUTLETNODE,AIRLOOPHVAC:RETURNPATH,MECHANICAL_2_Z8_RETURNAIRPATH,Outlet,1
 Parent Node Connection,BREAK_ROOM_0_Z1_ADUOUTLET,ZONEHVAC:AIRDISTRIBUTIONUNIT,BREAK_ROOM_0_Z1_ADU,Outlet,1
 Parent Node Connection,OFFICE_PRIVATE_0_Z2_ADUOUTLET,ZONEHVAC:AIRDISTRIBUTIONUNIT,OFFICE_PRIVATE_0_Z2_ADU,Outlet,1
 Parent Node Connection,STORAGE_0_Z3_ADUOUTLET,ZONEHVAC:AIRDISTRIBUTIONUNIT,STORAGE_0_Z3_ADU,Outlet,1
 Parent Node Connection,BREAK_ROOM_1_Z4_ADUOUTLET,ZONEHVAC:AIRDISTRIBUTIONUNIT,BREAK_ROOM_1_Z4_ADU,Outlet,1
 Parent Node Connection,OFFICE_PRIVATE_1_Z5_ADUOUTLET,ZONEHVAC:AIRDISTRIBUTIONUNIT,OFFICE_PRIVATE_1_Z5_ADU,Outlet,1
 Parent Node Connection,STORAGE_1_Z6_ADUOUTLET,ZONEHVAC:AIRDISTRIBUTIONUNIT,STORAGE_1_Z6_ADU,Outlet,1
 Parent Node Connection,LOBBY_2_Z7_ADUOUTLET,ZONEHVAC:AIRDISTRIBUTIONUNIT,LOBBY_2_Z7_ADU,Outlet,1
 Parent Node Connection,MECHANICAL_2_Z8_ADUOUTLET,ZONEHVAC:AIRDISTRIBUTIONUNIT,MECHANICAL_2_Z8_ADU,Outlet,1
 Parent Node Connection,BREAK_ROOM_0_Z1_ADUOUTLET,AIRTERMINAL:SINGLEDUCT:VAV:REHEAT,BREAK_ROOM_0_Z1_VAVTERMINAL,Outlet,1
 Parent Node Connection,OFFICE_PRIVATE_0_Z2_ADUOUTLET,AIRTERMINAL:SINGLEDUCT:VAV:REHEAT,OFFICE_PRIVATE_0_Z2_VAVTERMINAL,Outlet,1
 Parent Node Connection,STORAGE_0_Z3_ADUOUTLET,AIRTERMINAL:SINGLEDUCT:VAV:REHEAT,STORAGE_0_Z3_VAVTERMINAL,Outlet,1
 Parent Node Connection,BREAK_ROOM_1_Z4_ADUOUTLET,AIRTERMINAL:SINGLEDUCT:VAV:REHEAT,BREAK_ROOM_1_Z4_VAVTERMINAL,Outlet,1
 Parent Node Connection,OFFICE_PRIVATE_1_Z5_ADUOUTLET,AIRTERMINAL:SINGLEDUCT:VAV:REHEAT,OFFICE_PRIVATE_1_Z5_VAVTERMINAL,Outlet,1
 Parent Node Connection,STORAGE_1_Z6_ADUOUTLET,AIRTERMINAL:SINGLEDUCT:VAV:REHEAT,STORAGE_1_Z6_VAVTERMINAL,Outlet,1
 Parent Node Connection,LOBBY_2_Z7_ADUOUTLET,AIRTERMINAL:SINGLEDUCT:VAV:REHEAT,LOBBY_2_Z7_VAVTERMINAL,Outlet,1
 Parent Node Connection,MECHANICAL_2_Z8_ADUOUTLET,AIRTERMINAL:SINGLEDUCT:VAV:REHEAT,MECHANICAL_2_Z8_VAVTERMINAL,Outlet,1
 Parent Node Connection,BREAK_ROOM_0_Z1_SUPPLYINLET,AIRLOOPHVAC,BREAK_ROOM_0_Z1_AIRLOOP,Inlet,1
 Parent Node Connection,BREAK_ROOM_0_Z1_ZONEEQUIPMENTOUTLETNODE,AIRLOOPHVAC,BREAK_ROOM_0_Z1_AIRLOOP,Outlet,1
 Parent Node Connection,BREAK_ROOM_0_Z1_ZONEEQUIPMENTINLET,AIRLOOPHVAC,BREAK_ROOM_0_Z1_AIRLOOP,Inlet,1
 Parent Node Connection,BREAK_ROOM_0_Z1_SUPPLYEQUIPMENTOUTLETNODE,AIRLOOPHVAC,BREAK_ROOM_0_Z1_AIRLOOP,Outlet,1
 Parent Node Connection,OFFICE_PRIVATE_0_Z2_SUPPLYINLET,AIRLOOPHVAC,OFFICE_PRIVATE_0_Z2_AIRLOOP,Inlet,1
 Parent Node Connection,OFFICE_PRIVATE_0_Z2_ZONEEQUIPMENTOUTLETNODE,AIRLOOPHVAC,OFFICE_PRIVATE_0_Z2_AIRLOOP,Outlet,1
 Parent Node Connection,OFFICE_PRIVATE_0_Z2_ZONEEQUIPMENTINLET,AIRLOOPHVAC,OFFICE_PRIVATE_0_Z2_AIRLOOP,Inlet,1
 Parent Node Connection,OFFICE_PRIVATE_0_Z2_SUPPLYEQUIPMENTOUTLETNODE,AIRLOOPHVAC,OFFICE_PRIVATE_0_Z2_AIRLOOP,Outlet,1
 Parent Node Connection,STORAGE_0_Z3_SUPPLYINLET,AIRLOOPHVAC,STORAGE_0_Z3_AIRLOOP,Inlet,1
 Parent Node Connection,STORAGE_0_Z3_ZONEEQUIPMENTOUTLETNODE,AIRLOOPHVAC,STORAGE_0_Z3_AIRLOOP,Outlet,1
 Parent Node Connection,STORAGE_0_Z3_ZONEEQUIPMENTINLET,AIRLOOPHVAC,STORAGE_0_Z3_AIRLOOP,Inlet,1
 Parent Node Connection,STORAGE_0_Z3_SUPPLYEQUIPMENTOUTLETNODE,AIRLOOPHVAC,STORAGE_0_Z3_AIRLOOP,Outlet,1
 Parent Node Connection,BREAK_ROOM_1_Z4_SUPPLYINLET,AIRLOOPHVAC,BREAK_ROOM_1_Z4_AIRLOOP,Inlet,1
 Parent Node Connection,BREAK_ROOM_1_Z4_ZONEEQUIPMENTOUTLETNODE,AIRLOOPHVAC,BREAK_ROOM_1_Z4_AIRLOOP,Outlet,1
 Parent Node Connection,BREAK_ROOM_1_Z4_ZONEEQUIPMENTINLET,AIRLOOPHVAC,BREAK_ROOM_1_Z4_AIRLOOP,Inlet,1
 Parent Node Connection,BREAK_ROOM_1_Z4_SUPPLYEQUIPMENTOUTLETNODE,AIRLOOPHVAC,BREAK_ROOM_1_Z4_AIRLOOP,Outlet,1
 Parent Node Connection,OFFICE_PRIVATE_1_Z5_SUPPLYINLET,AIRLOOPHVAC,OFFICE_PRIVATE_1_Z5_AIRLOOP,Inlet,1
 Parent Node Connection,OFFICE_PRIVATE_1_Z5_ZONEEQUIPMENTOUTLETNODE,AIRLOOPHVAC,OFFICE_PRIVATE_1_Z5_AIRLOOP,Outlet,1
 Parent Node Connection,OFFICE_PRIVATE_1_Z5_ZONEEQUIPMENTINLET,AIRLOOPHVAC,OFFICE_PRIVATE_1_Z5_AIRLOOP,Inlet,1
 Parent Node Connection,OFFICE_PRIVATE_1_Z5_SUPPLYEQUIPMENTOUTLETNODE,AIRLOOPHVAC,OFFICE_PRIVATE_1_Z5_AIRLOOP,Outlet,1
 Parent Node Connection,STORAGE_1_Z6_SUPPLYINLET,AIRLOOPHVAC,STORAGE_1_Z6_AIRLOOP,Inlet,1
 Parent Node Connection,STORAGE_1_Z6_ZONEEQUIPMENTOUTLETNODE,AIRLOOPHVAC,STORAGE_1_Z6_AIRLOOP,Outlet,1
 Parent Node Connection,STORAGE_1_Z6_ZONEEQUIPMENTINLET,AIRLOOPHVAC,STORAGE_1_Z6_AIRLOOP,Inlet,1
 Parent Node Connection,STORAGE_1_Z6_SUPPLYEQUIPMENTOUTLETNODE,AIRLOOPHVAC,STORAGE_1_Z6_AIRLOOP,Outlet,1
 Parent Node Connection,LOBBY_2_Z7_SUPPLYINLET,AIRLOOPHVAC,LOBBY_2_Z7_AIRLOOP,Inlet,1
 Parent Node Connection,LOBBY_2_Z7_ZONEEQUIPMENTOUTLETNODE,AIRLOOPHVAC,LOBBY_2_Z7_AIRLOOP,Outlet,1
 Parent Node Connection,LOBBY_2_Z7_ZONEEQUIPMENTINLET,AIRLOOPHVAC,LOBBY_2_Z7_AIRLOOP,Inlet,1
 Parent Node Connection,LOBBY_2_Z7_SUPPLYEQUIPMENTOUTLETNODE,AIRLOOPHVAC,LOBBY_2_Z7_AIRLOOP,Outlet,1
 Parent Node Connection,MECHANICAL_2_Z8_SUPPLYINLET,AIRLOOPHVAC,MECHANICAL_2_Z8_AIRLOOP,Inlet,1
 Parent Node Connection,MECHANICAL_2_Z8_ZONEEQUIPMENTOUTLETNODE,AIRLOOPHVAC,MECHANICAL_2_Z8_AIRLOOP,Outlet,1
 Parent Node Connection,MECHANICAL_2_Z8_ZONEEQUIPMENTINLET,AIRLOOPHVAC,MECHANICAL_2_Z8_AIRLOOP,Inlet,1
 Parent Node Connection,MECHANICAL_2_Z8_SUPPLYEQUIPMENTOUTLETNODE,AIRLOOPHVAC,MECHANICAL_2_Z8_AIRLOOP,Outlet,1
 Parent Node Connection,BREAK_ROOM_0_Z1_SUPPLYINLET,COILSYSTEM:COOLING:DX,BREAK_ROOM_0_Z1_COOLINGCOIL,Inlet,1
 Parent Node Connection,BREAK_ROOM_0_Z1_COOLC-HEATCNODE,COILSYSTEM:COOLING:DX,BREAK_ROOM_0_Z1_COOLINGCOIL,Outlet,1
 Parent Node Connection,BREAK_ROOM_1_Z4_SUPPLYINLET,COILSYSTEM:COOLING:DX,BREAK_ROOM_1_Z4_COOLINGCOIL,Inlet,1
 Parent Node Connection,BREAK_ROOM_1_Z4_COOLC-HEATCNODE,COILSYSTEM:COOLING:DX,BREAK_ROOM_1_Z4_COOLINGCOIL,Outlet,1
 Parent Node Connection,LOBBY_2_Z7_SUPPLYINLET,COILSYSTEM:COOLING:DX,LOBBY_2_Z7_COOLINGCOIL,Inlet,1
 Parent Node Connection,LOBBY_2_Z7_COOLC-HEATCNODE,COILSYSTEM:COOLING:DX,LOBBY_2_Z7_COOLINGCOIL,Outlet,1
 Parent Node Connection,MECHANICAL_2_Z8_SUPPLYINLET,COILSYSTEM:COOLING:DX,MECHANICAL_2_Z8_COOLINGCOIL,Inlet,1
 Parent Node Connection,MECHANICAL_2_Z8_COOLC-HEATCNODE,COILSYSTEM:COOLING:DX,MECHANICAL_2_Z8_COOLINGCOIL,Outlet,1
 Parent Node Connection,OFFICE_PRIVATE_0_Z2_SUPPLYINLET,COILSYSTEM:COOLING:DX,OFFICE_PRIVATE_0_Z2_COOLINGCOIL,Inlet,1
 Parent Node Connection,OFFICE_PRIVATE_0_Z2_COOLC-HEATCNODE,COILSYSTEM:COOLING:DX,OFFICE_PRIVATE_0_Z2_COOLINGCOIL,Outlet,1
 Parent Node Connection,OFFICE_PRIVATE_1_Z5_SUPPLYINLET,COILSYSTEM:COOLING:DX,OFFICE_PRIVATE_1_Z5_COOLINGCOIL,Inlet,1
 Parent Node Connection,OFFICE_PRIVATE_1_Z5_COOLC-HEATCNODE,COILSYSTEM:COOLING:DX,OFFICE_PRIVATE_1_Z5_COOLINGCOIL,Outlet,1
 Parent Node Connection,STORAGE_0_Z3_SUPPLYINLET,COILSYSTEM:COOLING:DX,STORAGE_0_Z3_COOLINGCOIL,Inlet,1
 Parent Node Connection,STORAGE_0_Z3_COOLC-HEATCNODE,COILSYSTEM:COOLING:DX,STORAGE_0_Z3_COOLINGCOIL,Outlet,1
 Parent Node Connection,STORAGE_1_Z6_SUPPLYINLET,COILSYSTEM:COOLING:DX,STORAGE_1_Z6_COOLINGCOIL,Inlet,1
 Parent Node Connection,STORAGE_1_Z6_COOLC-HEATCNODE,COILSYSTEM:COOLING:DX,STORAGE_1_Z6_COOLINGCOIL,Outlet,1
 Parent Node Connection,BREAK_ROOM_0_Z1_COOLC-HEATCNODE,COILSYSTEM:COOLING:DX,BREAK_ROOM_0_Z1_COOLINGCOIL,Sensor,1
 Parent Node Connection,OFFICE_PRIVATE_0_Z2_COOLC-HEATCNODE,COILSYSTEM:COOLING:DX,OFFICE_PRIVATE_0_Z2_COOLINGCOIL,Sensor,1
 Parent Node Connection,STORAGE_0_Z3_COOLC-HEATCNODE,COILSYSTEM:COOLING:DX,STORAGE_0_Z3_COOLINGCOIL,Sensor,1
 Parent Node Connection,BREAK_ROOM_1_Z4_COOLC-HEATCNODE,COILSYSTEM:COOLING:DX,BREAK_ROOM_1_Z4_COOLINGCOIL,Sensor,1
 Parent Node Connection,OFFICE_PRIVATE_1_Z5_COOLC-HEATCNODE,COILSYSTEM:COOLING:DX,OFFICE_PRIVATE_1_Z5_COOLINGCOIL,Sensor,1
 Parent Node Connection,STORAGE_1_Z6_COOLC-HEATCNODE,COILSYSTEM:COOLING:DX,STORAGE_1_Z6_COOLINGCOIL,Sensor,1
 Parent Node Connection,LOBBY_2_Z7_COOLC-HEATCNODE,COILSYSTEM:COOLING:DX,LOBBY_2_Z7_COOLINGCOIL,Sensor,1
 Parent Node Connection,MECHANICAL_2_Z8_COOLC-HEATCNODE,COILSYSTEM:COOLING:DX,MECHANICAL_2_Z8_COOLINGCOIL,Sensor,1
! ===============================================================
! <#Non-Parent Node Connections>,<Number of Non-Parent Node Connections>
 #Non-Parent Node Connections,168
! <Non-Parent Node Connection>,<Node Name>,<Node ObjectType>,<Node ObjectName>,<Node ConnectionType>,<Node FluidStream>
 Non-Parent Node Connection,BREAK_ROOM_0 AIR NODE,ZONEHVAC:EQUIPMENTCONNECTIONS,BREAK_ROOM_0,ZoneNode,1
 Non-Parent Node Connection,BREAK_ROOM_0_Z1_ADUOUTLET,ZONEHVAC:EQUIPMENTCONNECTIONS,BREAK_ROOM_0,ZoneInlet,1
 Non-Parent Node Connection,BREAK_ROOM_0_Z1_RETURNAIR,ZONEHVAC:EQUIPMENTCONNECTIONS,BREAK_ROOM_0,ZoneReturn,1
 Non-Parent Node Connection,OFFICE_PRIVATE_0 AIR NODE,ZONEHVAC:EQUIPMENTCONNECTIONS,OFFICE_PRIVATE_0,ZoneNode,1
 Non-Parent Node Connection,OFFICE_PRIVATE_0_Z2_ADUOUTLET,ZONEHVAC:EQUIPMENTCONNECTIONS,OFFICE_PRIVATE_0,ZoneInlet,1
 Non-Parent Node Connection,OFFICE_PRIVATE_0_Z2_RETURNAIR,ZONEHVAC:EQUIPMENTCONNECTIONS,OFFICE_PRIVATE_0,ZoneReturn,1
 Non-Parent Node Connection,STORAGE_0 AIR NODE,ZONEHVAC:EQUIPMENTCONNECTIONS,STORAGE_0,ZoneNode,1
 Non-Parent Node Connection,STORAGE_0_Z3_ADUOUTLET,ZONEHVAC:EQUIPMENTCONNECTIONS,STORAGE_0,ZoneInlet,1
 Non-Parent Node Connection,STORAGE_0_Z3_RETURNAIR,ZONEHVAC:EQUIPMENTCONNECTIONS,STORAGE_0,ZoneReturn,1
 Non-Parent Node Connection,BREAK_ROOM_1 AIR NODE,ZONEHVAC:EQUIPMENTCONNECTIONS,BREAK_ROOM_1,ZoneNode,1
 Non-Parent Node Connection,BREAK_ROOM_1_Z4_ADUOUTLET,ZONEHVAC:EQUIPMENTCONNECTIONS,BREAK_ROOM_1,ZoneInlet,1
 Non-Parent Node Connection,BREAK_ROOM_1_Z4_RETURNAIR,ZONEHVAC:EQUIPMENTCONNECTIONS,BREAK_ROOM_1,ZoneReturn,1
 Non-Parent Node Connection,OFFICE_PRIVATE_1 AIR NODE,ZONEHVAC:EQUIPMENTCONNECTIONS,OFFICE_PRIVATE_1,ZoneNode,1
 Non-Parent Node Connection,OFFICE_PRIVATE_1_Z5_ADUOUTLET,ZONEHVAC:EQUIPMENTCONNECTIONS,OFFICE_PRIVATE_1,ZoneInlet,1
 Non-Parent Node Connection,OFFICE_PRIVATE_1_Z5_RETURNAIR,ZONEHVAC:EQUIPMENTCONNECTIONS,OFFICE_PRIVATE_1,ZoneReturn,1
 Non-Parent Node Connection,STORAGE_1 AIR NODE,ZONEHVAC:EQUIPMENTCONNECTIONS,STORAGE_1,ZoneNode,1
 Non-Parent Node Connection,STORAGE_1_Z6_ADUOUTLET,ZONEHVAC:EQUIPMENTCONNECTIONS,STORAGE_1,ZoneInlet,1
 Non-Parent Node Connection,STORAGE_1_Z6_RETURNAIR,ZONEHVAC:EQUIPMENTCONNECTIONS,STORAGE_1,ZoneReturn,1
 Non-Parent Node Connection,LOBBY_2 AIR NODE,ZONEHVAC:EQUIPMENTCONNECTIONS,LOBBY_2,ZoneNode,1
 Non-Parent Node Connection,LOBBY_2_Z7_ADUOUTLET,ZONEHVAC:EQUIPMENTCONNECTIONS,LOBBY_2,ZoneInlet,1
 Non-Parent Node Connection,LOBBY_2_Z7_RETURNAIR,ZONEHVAC:EQUIPMENTCONNECTIONS,LOBBY_2,ZoneReturn,1
 Non-Parent Node Connection,MECHANICAL_2 AIR NODE,ZONEHVAC:EQUIPMENTCONNECTIONS,MECHANICAL_2,ZoneNode,1
 Non-Parent Node Connection,MECHANICAL_2_Z8_ADUOUTLET,ZONEHVAC:EQUIPMENTCONNECTIONS,MECHANICAL_2,ZoneInlet,1
 Non-Parent Node Connection,MECHANICAL_2_Z8_RETURNAIR,ZONEHVAC:EQUIPMENTCONNECTIONS,MECHANICAL_2,ZoneReturn,1
 Non-Parent Node Connection,BREAK_ROOM_0_Z1_HEATC-FANNODE,SETPOINTMANAGER:SCHEDULED,BREAK_ROOM_0_Z1_HEATINGSETPOINTMANAGER,Setpoint,1
 Non-Parent Node Connection,BREAK_ROOM_0_Z1_COOLC-HEATCNODE,SETPOINTMANAGER:SCHEDULED,BREAK_ROOM_0_Z1_COOLINGSETPOINTMANAGER,Setpoint,1
 Non-Parent Node Connection,OFFICE_PRIVATE_0_Z2_HEATC-FANNODE,SETPOINTMANAGER:SCHEDULED,OFFICE_PRIVATE_0_Z2_HEATINGSETPOINTMANAGER,Setpoint,1
 Non-Parent Node Connection,OFFICE_PRIVATE_0_Z2_COOLC-HEATCNODE,SETPOINTMANAGER:SCHEDULED,OFFICE_PRIVATE_0_Z2_COOLINGSETPOINTMANAGER,Setpoint,1
 Non-Parent Node Connection,STORAGE_0_Z3_HEATC-FANNODE,SETPOINTMANAGER:SCHEDULED,STORAGE_0_Z3_HEATINGSETPOINTMANAGER,Setpoint,1
 Non-Parent Node Connection,STORAGE_0_Z3_COOLC-HEATCNODE,SETPOINTMANAGER:SCHEDULED,STORAGE_0_Z3_COOLINGSETPOINTMANAGER,Setpoint,1
 Non-Parent Node Connection,BREAK_ROOM_1_Z4_HEATC-FANNODE,SETPOINTMANAGER:SCHEDULED,BREAK_ROOM_1_Z4_HEATINGSETPOINTMANAGER,Setpoint,1
 Non-Parent Node Connection,BREAK_ROOM_1_Z4_COOLC-HEATCNODE,SETPOINTMANAGER:SCHEDULED,BREAK_ROOM_1_Z4_COOLINGSETPOINTMANAGER,Setpoint,1
 Non-Parent Node Connection,OFFICE_PRIVATE_1_Z5_HEATC-FANNODE,SETPOINTMANAGER:SCHEDULED,OFFICE_PRIVATE_1_Z5_HEATINGSETPOINTMANAGER,Setpoint,1
 Non-Parent Node Connection,OFFICE_PRIVATE_1_Z5_COOLC-HEATCNODE,SETPOINTMANAGER:SCHEDULED,OFFICE_PRIVATE_1_Z5_COOLINGSETPOINTMANAGER,Setpoint,1
 Non-Parent Node Connection,STORAGE_1_Z6_HEATC-FANNODE,SETPOINTMANAGER:SCHEDULED,STORAGE_1_Z6_HEATINGSETPOINTMANAGER,Setpoint,1
 Non-Parent Node Connection,STORAGE_1_Z6_COOLC-HEATCNODE,SETPOINTMANAGER:SCHEDULED,STORAGE_1_Z6_COOLINGSETPOINTMANAGER,Setpoint,1
 Non-Parent Node Connection,LOBBY_2_Z7_HEATC-FANNODE,SETPOINTMANAGER:SCHEDULED,LOBBY_2_Z7_HEATINGSETPOINTMANAGER,Setpoint,1
 Non-Parent Node Connection,LOBBY_2_Z7_COOLC-HEATCNODE,SETPOINTMANAGER:SCHEDULED,LOBBY_2_Z7_COOLINGSETPOINTMANAGER,Setpoint,1
 Non-Parent Node Connection,MECHANICAL_2_Z8_HEATC-FANNODE,SETPOINTMANAGER:SCHEDULED,MECHANICAL_2_Z8_HEATINGSETPOINTMANAGER,Setpoint,1
 Non-Parent Node Connection,MECHANICAL_2_Z8_COOLC-HEATCNODE,SETPOINTMANAGER:SCHEDULED,MECHANICAL_2_Z8_COOLINGSETPOINTMANAGER,Setpoint,1
 Non-Parent Node Connection,BREAK_ROOM_0_Z1_SUPPLYEQUIPMENTOUTLETNODE,SETPOINTMANAGER:OUTDOORAIRRESET,BREAK_ROOM_0_Z1_SETPOINTMANAGER,Setpoint,1
 Non-Parent Node Connection,OFFICE_PRIVATE_0_Z2_SUPPLYEQUIPMENTOUTLETNODE,SETPOINTMANAGER:OUTDOORAIRRESET,OFFICE_PRIVATE_0_Z2_SETPOINTMANAGER,Setpoint,1
 Non-Parent Node Connection,STORAGE_0_Z3_SUPPLYEQUIPMENTOUTLETNODE,SETPOINTMANAGER:OUTDOORAIRRESET,STORAGE_0_Z3_SETPOINTMANAGER,Setpoint,1
 Non-Parent Node Connection,BREAK_ROOM_1_Z4_SUPPLYEQUIPMENTOUTLETNODE,SETPOINTMANAGER:OUTDOORAIRRESET,BREAK_ROOM_1_Z4_SETPOINTMANAGER,Setpoint,1
 Non-Parent Node Connection,OFFICE_PRIVATE_1_Z5_SUPPLYEQUIPMENTOUTLETNODE,SETPOINTMANAGER:OUTDOORAIRRESET,OFFICE_PRIVATE_1_Z5_SETPOINTMANAGER,Setpoint,1
 Non-Parent Node Connection,STORAGE_1_Z6_SUPPLYEQUIPMENTOUTLETNODE,SETPOINTMANAGER:OUTDOORAIRRESET,STORAGE_1_Z6_SETPOINTMANAGER,Setpoint,1
 Non-Parent Node Connection,LOBBY_2_Z7_SUPPLYEQUIPMENTOUTLETNODE,SETPOINTMANAGER:OUTDOORAIRRESET,LOBBY_2_Z7_SETPOINTMANAGER,Setpoint,1
 Non-Parent Node Connection,MECHANICAL_2_Z8_SUPPLYEQUIPMENTOUTLETNODE,SETPOINTMANAGER:OUTDOORAIRRESET,MECHANICAL_2_Z8_SETPOINTMANAGER,Setpoint,1
 Non-Parent Node Connection,BREAK_ROOM_0_Z1_ZONEEQUIPMENTINLET,AIRLOOPHVAC:ZONESPLITTER,BREAK_ROOM_0_Z1_SUPPLYSPLITTER,Inlet,1
 Non-Parent Node Connection,BREAK_ROOM_0_Z1_TERMINALINLET,AIRLOOPHVAC:ZONESPLITTER,BREAK_ROOM_0_Z1_SUPPLYSPLITTER,Outlet,1
 Non-Parent Node Connection,OFFICE_PRIVATE_0_Z2_ZONEEQUIPMENTINLET,AIRLOOPHVAC:ZONESPLITTER,OFFICE_PRIVATE_0_Z2_SUPPLYSPLITTER,Inlet,1
 Non-Parent Node Connection,OFFICE_PRIVATE_0_Z2_TERMINALINLET,AIRLOOPHVAC:ZONESPLITTER,OFFICE_PRIVATE_0_Z2_SUPPLYSPLITTER,Outlet,1
 Non-Parent Node Connection,STORAGE_0_Z3_ZONEEQUIPMENTINLET,AIRLOOPHVAC:ZONESPLITTER,STORAGE_0_Z3_SUPPLYSPLITTER,Inlet,1
 Non-Parent Node Connection,STORAGE_0_Z3_TERMINALINLET,AIRLOOPHVAC:ZONESPLITTER,STORAGE_0_Z3_SUPPLYSPLITTER,Outlet,1
 Non-Parent Node Connection,BREAK_ROOM_1_Z4_ZONEEQUIPMENTINLET,AIRLOOPHVAC:ZONESPLITTER,BREAK_ROOM_1_Z4_SUPPLYSPLITTER,Inlet,1
 Non-Parent Node Connection,BREAK_ROOM_1_Z4_TERMINALINLET,AIRLOOPHVAC:ZONESPLITTER,BREAK_ROOM_1_Z4_SUPPLYSPLITTER,Outlet,1
 Non-Parent Node Connection,OFFICE_PRIVATE_1_Z5_ZONEEQUIPMENTINLET,AIRLOOPHVAC:ZONESPLITTER,OFFICE_PRIVATE_1_Z5_SUPPLYSPLITTER,Inlet,1
 Non-Parent Node Connection,OFFICE_PRIVATE_1_Z5_TERMINALINLET,AIRLOOPHVAC:ZONESPLITTER,OFFICE_PRIVATE_1_Z5_SUPPLYSPLITTER,Outlet,1
 Non-Parent Node Connection,STORAGE_1_Z6_ZONEEQUIPMENTINLET,AIRLOOPHVAC:ZONESPLITTER,STORAGE_1_Z6_SUPPLYSPLITTER,Inlet,1
 Non-Parent Node Connection,STORAGE_1_Z6_TERMINALINLET,AIRLOOPHVAC:ZONESPLITTER,STORAGE_1_Z6_SUPPLYSPLITTER,Outlet,1
 Non-Parent Node Connection,LOBBY_2_Z7_ZONEEQUIPMENTINLET,AIRLOOPHVAC:ZONESPLITTER,LOBBY_2_Z7_SUPPLYSPLITTER,Inlet,1
 Non-Parent Node Connection,LOBBY_2_Z7_TERMINALINLET,AIRLOOPHVAC:ZONESPLITTER,LOBBY_2_Z7_SUPPLYSPLITTER,Outlet,1
 Non-Parent Node Connection,MECHANICAL_2_Z8_ZONEEQUIPMENTINLET,AIRLOOPHVAC:ZONESPLITTER,MECHANICAL_2_Z8_SUPPLYSPLITTER,Inlet,1
 Non-Parent Node Connection,MECHANICAL_2_Z8_TERMINALINLET,AIRLOOPHVAC:ZONESPLITTER,MECHANICAL_2_Z8_SUPPLYSPLITTER,Outlet,1
 Non-Parent Node Connection,BREAK_ROOM_0_Z1_TERMINALOUTLET,AIRTERMINAL:SINGLEDUCT:VAV:REHEAT,BREAK_ROOM_0_Z1_VAVTERMINAL,Outlet,1
 Non-Parent Node Connection,BREAK_ROOM_0_Z1_TERMINALINLET,AIRTERMINAL:SINGLEDUCT:VAV:REHEAT,BREAK_ROOM_0_Z1_VAVTERMINAL,Inlet,1
 Non-Parent Node Connection,OFFICE_PRIVATE_0_Z2_TERMINALOUTLET,AIRTERMINAL:SINGLEDUCT:VAV:REHEAT,OFFICE_PRIVATE_0_Z2_VAVTERMINAL,Outlet,1
 Non-Parent Node Connection,OFFICE_PRIVATE_0_Z2_TERMINALINLET,AIRTERMINAL:SINGLEDUCT:VAV:REHEAT,OFFICE_PRIVATE_0_Z2_VAVTERMINAL,Inlet,1
 Non-Parent Node Connection,STORAGE_0_Z3_TERMINALOUTLET,AIRTERMINAL:SINGLEDUCT:VAV:REHEAT,STORAGE_0_Z3_VAVTERMINAL,Outlet,1
 Non-Parent Node Connection,STORAGE_0_Z3_TERMINALINLET,AIRTERMINAL:SINGLEDUCT:VAV:REHEAT,STORAGE_0_Z3_VAVTERMINAL,Inlet,1
 Non-Parent Node Connection,BREAK_ROOM_1_Z4_TERMINALOUTLET,AIRTERMINAL:SINGLEDUCT:VAV:REHEAT,BREAK_ROOM_1_Z4_VAVTERMINAL,Outlet,1
 Non-Parent Node Connection,BREAK_ROOM_1_Z4_TERMINALINLET,AIRTERMINAL:SINGLEDUCT:VAV:REHEAT,BREAK_ROOM_1_Z4_VAVTERMINAL,Inlet,1
 Non-Parent Node Connection,OFFICE_PRIVATE_1_Z5_TERMINALOUTLET,AIRTERMINAL:SINGLEDUCT:VAV:REHEAT,OFFICE_PRIVATE_1_Z5_VAVTERMINAL,Outlet,1
 Non-Parent Node Connection,OFFICE_PRIVATE_1_Z5_TERMINALINLET,AIRTERMINAL:SINGLEDUCT:VAV:REHEAT,OFFICE_PRIVATE_1_Z5_VAVTERMINAL,Inlet,1
 Non-Parent Node Connection,STORAGE_1_Z6_TERMINALOUTLET,AIRTERMINAL:SINGLEDUCT:VAV:REHEAT,STORAGE_1_Z6_VAVTERMINAL,Outlet,1
 Non-Parent Node Connection,STORAGE_1_Z6_TERMINALINLET,AIRTERMINAL:SINGLEDUCT:VAV:REHEAT,STORAGE_1_Z6_VAVTERMINAL,Inlet,1
 Non-Parent Node Connection,LOBBY_2_Z7_TERMINALOUTLET,AIRTERMINAL:SINGLEDUCT:VAV:REHEAT,LOBBY_2_Z7_VAVTERMINAL,Outlet,1
 Non-Parent Node Connection,LOBBY_2_Z7_TERMINALINLET,AIRTERMINAL:SINGLEDUCT:VAV:REHEAT,LOBBY_2_Z7_VAVTERMINAL,Inlet,1
 Non-Parent Node Connection,MECHANICAL_2_Z8_TERMINALOUTLET,AIRTERMINAL:SINGLEDUCT:VAV:REHEAT,MECHANICAL_2_Z8_VAVTERMINAL,Outlet,1
 Non-Parent Node Connection,MECHANICAL_2_Z8_TERMINALINLET,AIRTERMINAL:SINGLEDUCT:VAV:REHEAT,MECHANICAL_2_Z8_VAVTERMINAL,Inlet,1
 Non-Parent Node Connection,BREAK_ROOM_0_Z1_COOLC-HEATCNODE,COIL:HEATING:ELECTRIC,BREAK_ROOM_0_Z1_HEATINGCOIL,Inlet,1
 Non-Parent Node Connection,BREAK_ROOM_0_Z1_HEATC-FANNODE,COIL:HEATING:ELECTRIC,BREAK_ROOM_0_Z1_HEATINGCOIL,Outlet,1
 Non-Parent Node Connection,BREAK_ROOM_0_Z1_HEATC-FANNODE,COIL:HEATING:ELECTRIC,BREAK_ROOM_0_Z1_HEATINGCOIL,Sensor,1
 Non-Parent Node Connection,BREAK_ROOM_0_Z1_TERMINALOUTLET,COIL:HEATING:ELECTRIC,BREAK_ROOM_0_Z1_REHEATCOIL,Inlet,1
 Non-Parent Node Connection,BREAK_ROOM_0_Z1_ADUOUTLET,COIL:HEATING:ELECTRIC,BREAK_ROOM_0_Z1_REHEATCOIL,Outlet,1
 Non-Parent Node Connection,OFFICE_PRIVATE_0_Z2_COOLC-HEATCNODE,COIL:HEATING:ELECTRIC,OFFICE_PRIVATE_0_Z2_HEATINGCOIL,Inlet,1
 Non-Parent Node Connection,OFFICE_PRIVATE_0_Z2_HEATC-FANNODE,COIL:HEATING:ELECTRIC,OFFICE_PRIVATE_0_Z2_HEATINGCOIL,Outlet,1
 Non-Parent Node Connection,OFFICE_PRIVATE_0_Z2_HEATC-FANNODE,COIL:HEATING:ELECTRIC,OFFICE_PRIVATE_0_Z2_HEATINGCOIL,Sensor,1
 Non-Parent Node Connection,OFFICE_PRIVATE_0_Z2_TERMINALOUTLET,COIL:HEATING:ELECTRIC,OFFICE_PRIVATE_0_Z2_REHEATCOIL,Inlet,1
 Non-Parent Node Connection,OFFICE_PRIVATE_0_Z2_ADUOUTLET,COIL:HEATING:ELECTRIC,OFFICE_PRIVATE_0_Z2_REHEATCOIL,Outlet,1
 Non-Parent Node Connection,STORAGE_0_Z3_COOLC-HEATCNODE,COIL:HEATING:ELECTRIC,STORAGE_0_Z3_HEATINGCOIL,Inlet,1
 Non-Parent Node Connection,STORAGE_0_Z3_HEATC-FANNODE,COIL:HEATING:ELECTRIC,STORAGE_0_Z3_HEATINGCOIL,Outlet,1
 Non-Parent Node Connection,STORAGE_0_Z3_HEATC-FANNODE,COIL:HEATING:ELECTRIC,STORAGE_0_Z3_HEATINGCOIL,Sensor,1
 Non-Parent Node Connection,STORAGE_0_Z3_TERMINALOUTLET,COIL:HEATING:ELECTRIC,STORAGE_0_Z3_REHEATCOIL,Inlet,1
 Non-Parent Node Connection,STORAGE_0_Z3_ADUOUTLET,COIL:HEATING:ELECTRIC,STORAGE_0_Z3_REHEATCOIL,Outlet,1
 Non-Parent Node Connection,BREAK_ROOM_1_Z4_COOLC-HEATCNODE,COIL:HEATING:ELECTRIC,BREAK_ROOM_1_Z4_HEATINGCOIL,Inlet,1
 Non-Parent Node Connection,BREAK_ROOM_1_Z4_HEATC-FANNODE,COIL:HEATING:ELECTRIC,BREAK_ROOM_1_Z4_HEATINGCOIL,Outlet,1
 Non-Parent Node Connection,BREAK_ROOM_1_Z4_HEATC-FANNODE,COIL:HEATING:ELECTRIC,BREAK_ROOM_1_Z4_HEATINGCOIL,Sensor,1
 Non-Parent Node Connection,BREAK_ROOM_1_Z4_TERMINALOUTLET,COIL:HEATING:ELECTRIC,BREAK_ROOM_1_Z4_REHEATCOIL,Inlet,1
 Non-Parent Node Connection,BREAK_ROOM_1_Z4_ADUOUTLET,COIL:HEATING:ELECTRIC,BREAK_ROOM_1_Z4_REHEATCOIL,Outlet,1
 Non-Parent Node Connection,OFFICE_PRIVATE_1_Z5_COOLC-HEATCNODE,COIL:HEATING:ELECTRIC,OFFICE_PRIVATE_1_Z5_HEATINGCOIL,Inlet,1
 Non-Parent Node Connection,OFFICE_PRIVATE_1_Z5_HEATC-FANNODE,COIL:HEATING:ELECTRIC,OFFICE_PRIVATE_1_Z5_HEATINGCOIL,Outlet,1
 Non-Parent Node Connection,OFFICE_PRIVATE_1_Z5_HEATC-FANNODE,COIL:HEATING:ELECTRIC,OFFICE_PRIVATE_1_Z5_HEATINGCOIL,Sensor,1
 Non-Parent Node Connection,OFFICE_PRIVATE_1_Z5_TERMINALOUTLET,COIL:HEATING:ELECTRIC,OFFICE_PRIVATE_1_Z5_REHEATCOIL,Inlet,1
 Non-Parent Node Connection,OFFICE_PRIVATE_1_Z5_ADUOUTLET,COIL:HEATING:ELECTRIC,OFFICE_PRIVATE_1_Z5_REHEATCOIL,Outlet,1
 Non-Parent Node Connection,STORAGE_1_Z6_COOLC-HEATCNODE,COIL:HEATING:ELECTRIC,STORAGE_1_Z6_HEATINGCOIL,Inlet,1
 Non-Parent Node Connection,STORAGE_1_Z6_HEATC-FANNODE,COIL:HEATING:ELECTRIC,STORAGE_1_Z6_HEATINGCOIL,Outlet,1
 Non-Parent Node Connection,STORAGE_1_Z6_HEATC-FANNODE,COIL:HEATING:ELECTRIC,STORAGE_1_Z6_HEATINGCOIL,Sensor,1
 Non-Parent Node Connection,STORAGE_1_Z6_TERMINALOUTLET,COIL:HEATING:ELECTRIC,STORAGE_1_Z6_REHEATCOIL,Inlet,1
 Non-Parent Node Connection,STORAGE_1_Z6_ADUOUTLET,COIL:HEATING:ELECTRIC,STORAGE_1_Z6_REHEATCOIL,Outlet,1
 Non-Parent Node Connection,LOBBY_2_Z7_COOLC-HEATCNODE,COIL:HEATING:ELECTRIC,LOBBY_2_Z7_HEATINGCOIL,Inlet,1
 Non-Parent Node Connection,LOBBY_2_Z7_HEATC-FANNODE,COIL:HEATING:ELECTRIC,LOBBY_2_Z7_HEATINGCOIL,Outlet,1
 Non-Parent Node Connection,LOBBY_2_Z7_HEATC-FANNODE,COIL:HEATING:ELECTRIC,LOBBY_2_Z7_HEATINGCOIL,Sensor,1
 Non-Parent Node Connection,LOBBY_2_Z7_TERMINALOUTLET,COIL:HEATING:ELECTRIC,LOBBY_2_Z7_REHEATCOIL,Inlet,1
 Non-Parent Node Connection,LOBBY_2_Z7_ADUOUTLET,COIL:HEATING:ELECTRIC,LOBBY_2_Z7_REHEATCOIL,Outlet,1
 Non-Parent Node Connection,MECHANICAL_2_Z8_COOLC-HEATCNODE,COIL:HEATING:ELECTRIC,MECHANICAL_2_Z8_HEATINGCOIL,Inlet,1
 Non-Parent Node Connection,MECHANICAL_2_Z8_HEATC-FANNODE,COIL:HEATING:ELECTRIC,MECHANICAL_2_Z8_HEATINGCOIL,Outlet,1
 Non-Parent Node Connection,MECHANICAL_2_Z8_HEATC-FANNODE,COIL:HEATING:ELECTRIC,MECHANICAL_2_Z8_HEATINGCOIL,Sensor,1
 Non-Parent Node Connection,MECHANICAL_2_Z8_TERMINALOUTLET,COIL:HEATING:ELECTRIC,MECHANICAL_2_Z8_REHEATCOIL,Inlet,1
 Non-Parent Node Connection,MECHANICAL_2_Z8_ADUOUTLET,COIL:HEATING:ELECTRIC,MECHANICAL_2_Z8_REHEATCOIL,Outlet,1
 Non-Parent Node Connection,BREAK_ROOM_0_Z1_ZONEEQUIPMENTOUTLETNODE,AIRLOOPHVAC:ZONEMIXER,BREAK_ROOM_0_Z1_RETURNAIRMIXER,Outlet,1
 Non-Parent Node Connection,BREAK_ROOM_0_Z1_RETURNAIR,AIRLOOPHVAC:ZONEMIXER,BREAK_ROOM_0_Z1_RETURNAIRMIXER,Inlet,1
 Non-Parent Node Connection,OFFICE_PRIVATE_0_Z2_ZONEEQUIPMENTOUTLETNODE,AIRLOOPHVAC:ZONEMIXER,OFFICE_PRIVATE_0_Z2_RETURNAIRMIXER,Outlet,1
 Non-Parent Node Connection,OFFICE_PRIVATE_0_Z2_RETURNAIR,AIRLOOPHVAC:ZONEMIXER,OFFICE_PRIVATE_0_Z2_RETURNAIRMIXER,Inlet,1
 Non-Parent Node Connection,STORAGE_0_Z3_ZONEEQUIPMENTOUTLETNODE,AIRLOOPHVAC:ZONEMIXER,STORAGE_0_Z3_RETURNAIRMIXER,Outlet,1
 Non-Parent Node Connection,STORAGE_0_Z3_RETURNAIR,AIRLOOPHVAC:ZONEMIXER,STORAGE_0_Z3_RETURNAIRMIXER,Inlet,1
 Non-Parent Node Connection,BREAK_ROOM_1_Z4_ZONEEQUIPMENTOUTLETNODE,AIRLOOPHVAC:ZONEMIXER,BREAK_ROOM_1_Z4_RETURNAIRMIXER,Outlet,1
 Non-Parent Node Connection,BREAK_ROOM_1_Z4_RETURNAIR,AIRLOOPHVAC:ZONEMIXER,BREAK_ROOM_1_Z4_RETURNAIRMIXER,Inlet,1
 Non-Parent Node Connection,OFFICE_PRIVATE_1_Z5_ZONEEQUIPMENTOUTLETNODE,AIRLOOPHVAC:ZONEMIXER,OFFICE_PRIVATE_1_Z5_RETURNAIRMIXER,Outlet,1
 Non-Parent Node Connection,OFFICE_PRIVATE_1_Z5_RETURNAIR,AIRLOOPHVAC:ZONEMIXER,OFFICE_PRIVATE_1_Z5_RETURNAIRMIXER,Inlet,1
 Non-Parent Node Connection,STORAGE_1_Z6_ZONEEQUIPMENTOUTLETNODE,AIRLOOPHVAC:ZONEMIXER,STORAGE_1_Z6_RETURNAIRMIXER,Outlet,1
 Non-Parent Node Connection,STORAGE_1_Z6_RETURNAIR,AIRLOOPHVAC:ZONEMIXER,STORAGE_1_Z6_RETURNAIRMIXER,Inlet,1
 Non-Parent Node Connection,LOBBY_2_Z7_ZONEEQUIPMENTOUTLETNODE,AIRLOOPHVAC:ZONEMIXER,LOBBY_2_Z7_RETURNAIRMIXER,Outlet,1
 Non-Parent Node Connection,LOBBY_2_Z7_RETURNAIR,AIRLOOPHVAC:ZONEMIXER,LOBBY_2_Z7_RETURNAIRMIXER,Inlet,1
 Non-Parent Node Connection,MECHANICAL_2_Z8_ZONEEQUIPMENTOUTLETNODE,AIRLOOPHVAC:ZONEMIXER,MECHANICAL_2_Z8_RETURNAIRMIXER,Outlet,1
 Non-Parent Node Connection,MECHANICAL_2_Z8_RETURNAIR,AIRLOOPHVAC:ZONEMIXER,MECHANICAL_2_Z8_RETURNAIRMIXER,Inlet,1
 Non-Parent Node Connection,BREAK_ROOM_0_Z1_HEATC-FANNODE,FAN:VARIABLEVOLUME,BREAK_ROOM_0_Z1_SUPPLYFAN,Inlet,1
 Non-Parent Node Connection,BREAK_ROOM_0_Z1_SUPPLYEQUIPMENTOUTLETNODE,FAN:VARIABLEVOLUME,BREAK_ROOM_0_Z1_SUPPLYFAN,Outlet,1
 Non-Parent Node Connection,OFFICE_PRIVATE_0_Z2_HEATC-FANNODE,FAN:VARIABLEVOLUME,OFFICE_PRIVATE_0_Z2_SUPPLYFAN,Inlet,1
 Non-Parent Node Connection,OFFICE_PRIVATE_0_Z2_SUPPLYEQUIPMENTOUTLETNODE,FAN:VARIABLEVOLUME,OFFICE_PRIVATE_0_Z2_SUPPLYFAN,Outlet,1
 Non-Parent Node Connection,STORAGE_0_Z3_HEATC-FANNODE,FAN:VARIABLEVOLUME,STORAGE_0_Z3_SUPPLYFAN,Inlet,1
 Non-Parent Node Connection,STORAGE_0_Z3_SUPPLYEQUIPMENTOUTLETNODE,FAN:VARIABLEVOLUME,STORAGE_0_Z3_SUPPLYFAN,Outlet,1
 Non-Parent Node Connection,BREAK_ROOM_1_Z4_HEATC-FANNODE,FAN:VARIABLEVOLUME,BREAK_ROOM_1_Z4_SUPPLYFAN,Inlet,1
 Non-Parent Node Connection,BREAK_ROOM_1_Z4_SUPPLYEQUIPMENTOUTLETNODE,FAN:VARIABLEVOLUME,BREAK_ROOM_1_Z4_SUPPLYFAN,Outlet,1
 Non-Parent Node Connection,OFFICE_PRIVATE_1_Z5_HEATC-FANNODE,FAN:VARIABLEVOLUME,OFFICE_PRIVATE_1_Z5_SUPPLYFAN,Inlet,1
 Non-Parent Node Connection,OFFICE_PRIVATE_1_Z5_SUPPLYEQUIPMENTOUTLETNODE,FAN:VARIABLEVOLUME,OFFICE_PRIVATE_1_Z5_SUPPLYFAN,Outlet,1
 Non-Parent Node Connection,STORAGE_1_Z6_HEATC-FANNODE,FAN:VARIABLEVOLUME,STORAGE_1_Z6_SUPPLYFAN,Inlet,1
 Non-Parent Node Connection,STORAGE_1_Z6_SUPPLYEQUIPMENTOUTLETNODE,FAN:VARIABLEVOLUME,STORAGE_1_Z6_SUPPLYFAN,Outlet,1
 Non-Parent Node Connection,LOBBY_2_Z7_HEATC-FANNODE,FAN:VARIABLEVOLUME,LOBBY_2_Z7_SUPPLYFAN,Inlet,1
 Non-Parent Node Connection,LOBBY_2_Z7_SUPPLYEQUIPMENTOUTLETNODE,FAN:VARIABLEVOLUME,LOBBY_2_Z7_SUPPLYFAN,Outlet,1
 Non-Parent Node Connection,MECHANICAL_2_Z8_HEATC-FANNODE,FAN:VARIABLEVOLUME,MECHANICAL_2_Z8_SUPPLYFAN,Inlet,1
 Non-Parent Node Connection,MECHANICAL_2_Z8_SUPPLYEQUIPMENTOUTLETNODE,FAN:VARIABLEVOLUME,MECHANICAL_2_Z8_SUPPLYFAN,Outlet,1
 Non-Parent Node Connection,BREAK_ROOM_0_Z1_SUPPLYINLET,COIL:COOLING:DX:SINGLESPEED,BREAK_ROOM_0_Z1_COOLINGCOILDX,Inlet,1
 Non-Parent Node Connection,BREAK_ROOM_0_Z1_COOLC-HEATCNODE,COIL:COOLING:DX:SINGLESPEED,BREAK_ROOM_0_Z1_COOLINGCOILDX,Outlet,1
 Non-Parent Node Connection,OFFICE_PRIVATE_0_Z2_SUPPLYINLET,COIL:COOLING:DX:SINGLESPEED,OFFICE_PRIVATE_0_Z2_COOLINGCOILDX,Inlet,1
 Non-Parent Node Connection,OFFICE_PRIVATE_0_Z2_COOLC-HEATCNODE,COIL:COOLING:DX:SINGLESPEED,OFFICE_PRIVATE_0_Z2_COOLINGCOILDX,Outlet,1
 Non-Parent Node Connection,STORAGE_0_Z3_SUPPLYINLET,COIL:COOLING:DX:SINGLESPEED,STORAGE_0_Z3_COOLINGCOILDX,Inlet,1
 Non-Parent Node Connection,STORAGE_0_Z3_COOLC-HEATCNODE,COIL:COOLING:DX:SINGLESPEED,STORAGE_0_Z3_COOLINGCOILDX,Outlet,1
 Non-Parent Node Connection,BREAK_ROOM_1_Z4_SUPPLYINLET,COIL:COOLING:DX:SINGLESPEED,BREAK_ROOM_1_Z4_COOLINGCOILDX,Inlet,1
 Non-Parent Node Connection,BREAK_ROOM_1_Z4_COOLC-HEATCNODE,COIL:COOLING:DX:SINGLESPEED,BREAK_ROOM_1_Z4_COOLINGCOILDX,Outlet,1
 Non-Parent Node Connection,OFFICE_PRIVATE_1_Z5_SUPPLYINLET,COIL:COOLING:DX:SINGLESPEED,OFFICE_PRIVATE_1_Z5_COOLINGCOILDX,Inlet,1
 Non-Parent Node Connection,OFFICE_PRIVATE_1_Z5_COOLC-HEATCNODE,COIL:COOLING:DX:SINGLESPEED,OFFICE_PRIVATE_1_Z5_COOLINGCOILDX,Outlet,1
 Non-Parent Node Connection,STORAGE_1_Z6_SUPPLYINLET,COIL:COOLING:DX:SINGLESPEED,STORAGE_1_Z6_COOLINGCOILDX,Inlet,1
 Non-Parent Node Connection,STORAGE_1_Z6_COOLC-HEATCNODE,COIL:COOLING:DX:SINGLESPEED,STORAGE_1_Z6_COOLINGCOILDX,Outlet,1
 Non-Parent Node Connection,LOBBY_2_Z7_SUPPLYINLET,COIL:COOLING:DX:SINGLESPEED,LOBBY_2_Z7_COOLINGCOILDX,Inlet,1
 Non-Parent Node Connection,LOBBY_2_Z7_COOLC-HEATCNODE,COIL:COOLING:DX:SINGLESPEED,LOBBY_2_Z7_COOLINGCOILDX,Outlet,1
 Non-Parent Node Connection,MECHANICAL_2_Z8_SUPPLYINLET,COIL:COOLING:DX:SINGLESPEED,MECHANICAL_2_Z8_COOLINGCOILDX,Inlet,1
 Non-Parent Node Connection,MECHANICAL_2_Z8_COOLC-HEATCNODE,COIL:COOLING:DX:SINGLESPEED,MECHANICAL_2_Z8_COOLINGCOILDX,Outlet,1
