Program Version,EnergyPlus, Version 24.2.0-94a887817b, YMD=2025.11.02 19:26
! This file shows details about the branches, nodes, and other
! elements of the flow connections.
! This file is intended for use in "debugging" potential problems
! that may also be detected by the program, but may be more easily
! identified by "eye".
! This file is also intended to support software which draws a
! schematic diagram of the HVAC system.
! ===============================================================
! #Nodes,<Number of Unique Nodes>
 #Nodes,220
! <Node>,<NodeNumber>,<Node Name>,<Node Fluid Type>,<# Times Node Referenced After Definition>
 Node,1,MECHANICAL_0_Z1_ADUOUTLET,Air,4
 Node,2,OFFICE_OPEN_0_Z2_ADUOUTLET,Air,4
 Node,3,OFFICE_PRIVATE_0_Z3_ADUOUTLET,Air,4
 Node,4,STORAGE_0_Z4_ADUOUTLET,Air,4
 Node,5,LOBBY_1_Z5_ADUOUTLET,Air,4
 Node,6,CONFERENCE_1_Z6_ADUOUTLET,Air,4
 Node,7,BREAK_ROOM_1_Z7_ADUOUTLET,Air,4
 Node,8,OFFICE_OPEN_1_Z8_ADUOUTLET,Air,4
 Node,9,OFFICE_PRIVATE_1_Z9_ADUOUTLET,Air,4
 Node,10,CONFERENCE_2_Z10_ADUOUTLET,Air,4
 Node,11,BREAK_ROOM_2_Z11_ADUOUTLET,Air,4
 Node,12,OFFICE_PRIVATE_2_Z12_ADUOUTLET,Air,4
 Node,13,CONFERENCE_3_Z13_ADUOUTLET,Air,4
 Node,14,MECHANICAL_3_Z14_ADUOUTLET,Air,4
 Node,15,OFFICE_OPEN_3_Z15_ADUOUTLET,Air,4
 Node,16,OFFICE_PRIVATE_3_Z16_ADUOUTLET,Air,4
 Node,17,STORAGE_3_Z17_ADUOUTLET,Air,4
 Node,18,CONFERENCE_4_Z18_ADUOUTLET,Air,4
 Node,19,OFFICE_OPEN_4_Z19_ADUOUTLET,Air,4
 Node,20,STORAGE_4_Z20_ADUOUTLET,Air,4
 Node,21,MECHANICAL_0_Z1_SUPPLYINLET,Air,3
 Node,22,MECHANICAL_0_Z1_COOLC-HEATCNODE,Air,6
 Node,23,MECHANICAL_0_Z1_HEATC-FANNODE,Air,5
 Node,24,MECHANICAL_0_Z1_SUPPLYEQUIPMENTOUTLETNODE,Air,3
 Node,25,OFFICE_OPEN_0_Z2_SUPPLYINLET,Air,3
 Node,26,OFFICE_OPEN_0_Z2_COOLC-HEATCNODE,Air,6
 Node,27,OFFICE_OPEN_0_Z2_HEATC-FANNODE,Air,5
 Node,28,OFFICE_OPEN_0_Z2_SUPPLYEQUIPMENTOUTLETNODE,Air,3
 Node,29,OFFICE_PRIVATE_0_Z3_SUPPLYINLET,Air,3
 Node,30,OFFICE_PRIVATE_0_Z3_COOLC-HEATCNODE,Air,6
 Node,31,OFFICE_PRIVATE_0_Z3_HEATC-FANNODE,Air,5
 Node,32,OFFICE_PRIVATE_0_Z3_SUPPLYEQUIPMENTOUTLETNODE,Air,3
 Node,33,STORAGE_0_Z4_SUPPLYINLET,Air,3
 Node,34,STORAGE_0_Z4_COOLC-HEATCNODE,Air,6
 Node,35,STORAGE_0_Z4_HEATC-FANNODE,Air,5
 Node,36,STORAGE_0_Z4_SUPPLYEQUIPMENTOUTLETNODE,Air,3
 Node,37,LOBBY_1_Z5_SUPPLYINLET,Air,3
 Node,38,LOBBY_1_Z5_COOLC-HEATCNODE,Air,6
 Node,39,LOBBY_1_Z5_HEATC-FANNODE,Air,5
 Node,40,LOBBY_1_Z5_SUPPLYEQUIPMENTOUTLETNODE,Air,3
 Node,41,CONFERENCE_1_Z6_SUPPLYINLET,Air,3
 Node,42,CONFERENCE_1_Z6_COOLC-HEATCNODE,Air,6
 Node,43,CONFERENCE_1_Z6_HEATC-FANNODE,Air,5
 Node,44,CONFERENCE_1_Z6_SUPPLYEQUIPMENTOUTLETNODE,Air,3
 Node,45,BREAK_ROOM_1_Z7_SUPPLYINLET,Air,3
 Node,46,BREAK_ROOM_1_Z7_COOLC-HEATCNODE,Air,6
 Node,47,BREAK_ROOM_1_Z7_HEATC-FANNODE,Air,5
 Node,48,BREAK_ROOM_1_Z7_SUPPLYEQUIPMENTOUTLETNODE,Air,3
 Node,49,OFFICE_OPEN_1_Z8_SUPPLYINLET,Air,3
 Node,50,OFFICE_OPEN_1_Z8_COOLC-HEATCNODE,Air,6
 Node,51,OFFICE_OPEN_1_Z8_HEATC-FANNODE,Air,5
 Node,52,OFFICE_OPEN_1_Z8_SUPPLYEQUIPMENTOUTLETNODE,Air,3
 Node,53,OFFICE_PRIVATE_1_Z9_SUPPLYINLET,Air,3
 Node,54,OFFICE_PRIVATE_1_Z9_COOLC-HEATCNODE,Air,6
 Node,55,OFFICE_PRIVATE_1_Z9_HEATC-FANNODE,Air,5
 Node,56,OFFICE_PRIVATE_1_Z9_SUPPLYEQUIPMENTOUTLETNODE,Air,3
 Node,57,CONFERENCE_2_Z10_SUPPLYINLET,Air,3
 Node,58,CONFERENCE_2_Z10_COOLC-HEATCNODE,Air,6
 Node,59,CONFERENCE_2_Z10_HEATC-FANNODE,Air,5
 Node,60,CONFERENCE_2_Z10_SUPPLYEQUIPMENTOUTLETNODE,Air,3
 Node,61,BREAK_ROOM_2_Z11_SUPPLYINLET,Air,3
 Node,62,BREAK_ROOM_2_Z11_COOLC-HEATCNODE,Air,6
 Node,63,BREAK_ROOM_2_Z11_HEATC-FANNODE,Air,5
 Node,64,BREAK_ROOM_2_Z11_SUPPLYEQUIPMENTOUTLETNODE,Air,3
 Node,65,OFFICE_PRIVATE_2_Z12_SUPPLYINLET,Air,3
 Node,66,OFFICE_PRIVATE_2_Z12_COOLC-HEATCNODE,Air,6
 Node,67,OFFICE_PRIVATE_2_Z12_HEATC-FANNODE,Air,5
 Node,68,OFFICE_PRIVATE_2_Z12_SUPPLYEQUIPMENTOUTLETNODE,Air,3
 Node,69,CONFERENCE_3_Z13_SUPPLYINLET,Air,3
 Node,70,CONFERENCE_3_Z13_COOLC-HEATCNODE,Air,6
 Node,71,CONFERENCE_3_Z13_HEATC-FANNODE,Air,5
 Node,72,CONFERENCE_3_Z13_SUPPLYEQUIPMENTOUTLETNODE,Air,3
 Node,73,MECHANICAL_3_Z14_SUPPLYINLET,Air,3
 Node,74,MECHANICAL_3_Z14_COOLC-HEATCNODE,Air,6
 Node,75,MECHANICAL_3_Z14_HEATC-FANNODE,Air,5
 Node,76,MECHANICAL_3_Z14_SUPPLYEQUIPMENTOUTLETNODE,Air,3
 Node,77,OFFICE_OPEN_3_Z15_SUPPLYINLET,Air,3
 Node,78,OFFICE_OPEN_3_Z15_COOLC-HEATCNODE,Air,6
 Node,79,OFFICE_OPEN_3_Z15_HEATC-FANNODE,Air,5
 Node,80,OFFICE_OPEN_3_Z15_SUPPLYEQUIPMENTOUTLETNODE,Air,3
 Node,81,OFFICE_PRIVATE_3_Z16_SUPPLYINLET,Air,3
 Node,82,OFFICE_PRIVATE_3_Z16_COOLC-HEATCNODE,Air,6
 Node,83,OFFICE_PRIVATE_3_Z16_HEATC-FANNODE,Air,5
 Node,84,OFFICE_PRIVATE_3_Z16_SUPPLYEQUIPMENTOUTLETNODE,Air,3
 Node,85,STORAGE_3_Z17_SUPPLYINLET,Air,3
 Node,86,STORAGE_3_Z17_COOLC-HEATCNODE,Air,6
 Node,87,STORAGE_3_Z17_HEATC-FANNODE,Air,5
 Node,88,STORAGE_3_Z17_SUPPLYEQUIPMENTOUTLETNODE,Air,3
 Node,89,CONFERENCE_4_Z18_SUPPLYINLET,Air,3
 Node,90,CONFERENCE_4_Z18_COOLC-HEATCNODE,Air,6
 Node,91,CONFERENCE_4_Z18_HEATC-FANNODE,Air,5
 Node,92,CONFERENCE_4_Z18_SUPPLYEQUIPMENTOUTLETNODE,Air,3
 Node,93,OFFICE_OPEN_4_Z19_SUPPLYINLET,Air,3
 Node,94,OFFICE_OPEN_4_Z19_COOLC-HEATCNODE,Air,6
 Node,95,OFFICE_OPEN_4_Z19_HEATC-FANNODE,Air,5
 Node,96,OFFICE_OPEN_4_Z19_SUPPLYEQUIPMENTOUTLETNODE,Air,3
 Node,97,STORAGE_4_Z20_SUPPLYINLET,Air,3
 Node,98,STORAGE_4_Z20_COOLC-HEATCNODE,Air,6
 Node,99,STORAGE_4_Z20_HEATC-FANNODE,Air,5
 Node,100,STORAGE_4_Z20_SUPPLYEQUIPMENTOUTLETNODE,Air,3
 Node,101,MECHANICAL_0 AIR NODE,Air,0
 Node,102,MECHANICAL_0_Z1_RETURNAIR,Air,1
 Node,103,OFFICE_OPEN_0 AIR NODE,Air,0
 Node,104,OFFICE_OPEN_0_Z2_RETURNAIR,Air,1
 Node,105,OFFICE_PRIVATE_0 AIR NODE,Air,0
 Node,106,OFFICE_PRIVATE_0_Z3_RETURNAIR,Air,1
 Node,107,STORAGE_0 AIR NODE,Air,0
 Node,108,STORAGE_0_Z4_RETURNAIR,Air,1
 Node,109,LOBBY_1 AIR NODE,Air,0
 Node,110,LOBBY_1_Z5_RETURNAIR,Air,1
 Node,111,CONFERENCE_1 AIR NODE,Air,0
 Node,112,CONFERENCE_1_Z6_RETURNAIR,Air,1
 Node,113,BREAK_ROOM_1 AIR NODE,Air,0
 Node,114,BREAK_ROOM_1_Z7_RETURNAIR,Air,1
 Node,115,OFFICE_OPEN_1 AIR NODE,Air,0
 Node,116,OFFICE_OPEN_1_Z8_RETURNAIR,Air,1
 Node,117,OFFICE_PRIVATE_1 AIR NODE,Air,0
 Node,118,OFFICE_PRIVATE_1_Z9_RETURNAIR,Air,1
 Node,119,CONFERENCE_2 AIR NODE,Air,0
 Node,120,CONFERENCE_2_Z10_RETURNAIR,Air,1
 Node,121,BREAK_ROOM_2 AIR NODE,Air,0
 Node,122,BREAK_ROOM_2_Z11_RETURNAIR,Air,1
 Node,123,OFFICE_PRIVATE_2 AIR NODE,Air,0
 Node,124,OFFICE_PRIVATE_2_Z12_RETURNAIR,Air,1
 Node,125,CONFERENCE_3 AIR NODE,Air,0
 Node,126,CONFERENCE_3_Z13_RETURNAIR,Air,1
 Node,127,MECHANICAL_3 AIR NODE,Air,0
 Node,128,MECHANICAL_3_Z14_RETURNAIR,Air,1
 Node,129,OFFICE_OPEN_3 AIR NODE,Air,0
 Node,130,OFFICE_OPEN_3_Z15_RETURNAIR,Air,1
 Node,131,OFFICE_PRIVATE_3 AIR NODE,Air,0
 Node,132,OFFICE_PRIVATE_3_Z16_RETURNAIR,Air,1
 Node,133,STORAGE_3 AIR NODE,Air,0
 Node,134,STORAGE_3_Z17_RETURNAIR,Air,1
 Node,135,CONFERENCE_4 AIR NODE,Air,0
 Node,136,CONFERENCE_4_Z18_RETURNAIR,Air,1
 Node,137,OFFICE_OPEN_4 AIR NODE,Air,0
 Node,138,OFFICE_OPEN_4_Z19_RETURNAIR,Air,1
 Node,139,STORAGE_4 AIR NODE,Air,0
 Node,140,STORAGE_4_Z20_RETURNAIR,Air,1
 Node,141,MECHANICAL_0_Z1_ZONEEQUIPMENTINLET,Air,2
 Node,142,OFFICE_OPEN_0_Z2_ZONEEQUIPMENTINLET,Air,2
 Node,143,OFFICE_PRIVATE_0_Z3_ZONEEQUIPMENTINLET,Air,2
 Node,144,STORAGE_0_Z4_ZONEEQUIPMENTINLET,Air,2
 Node,145,LOBBY_1_Z5_ZONEEQUIPMENTINLET,Air,2
 Node,146,CONFERENCE_1_Z6_ZONEEQUIPMENTINLET,Air,2
 Node,147,BREAK_ROOM_1_Z7_ZONEEQUIPMENTINLET,Air,2
 Node,148,OFFICE_OPEN_1_Z8_ZONEEQUIPMENTINLET,Air,2
 Node,149,OFFICE_PRIVATE_1_Z9_ZONEEQUIPMENTINLET,Air,2
 Node,150,CONFERENCE_2_Z10_ZONEEQUIPMENTINLET,Air,2
 Node,151,BREAK_ROOM_2_Z11_ZONEEQUIPMENTINLET,Air,2
 Node,152,OFFICE_PRIVATE_2_Z12_ZONEEQUIPMENTINLET,Air,2
 Node,153,CONFERENCE_3_Z13_ZONEEQUIPMENTINLET,Air,2
 Node,154,MECHANICAL_3_Z14_ZONEEQUIPMENTINLET,Air,2
 Node,155,OFFICE_OPEN_3_Z15_ZONEEQUIPMENTINLET,Air,2
 Node,156,OFFICE_PRIVATE_3_Z16_ZONEEQUIPMENTINLET,Air,2
 Node,157,STORAGE_3_Z17_ZONEEQUIPMENTINLET,Air,2
 Node,158,CONFERENCE_4_Z18_ZONEEQUIPMENTINLET,Air,2
 Node,159,OFFICE_OPEN_4_Z19_ZONEEQUIPMENTINLET,Air,2
 Node,160,STORAGE_4_Z20_ZONEEQUIPMENTINLET,Air,2
 Node,161,MECHANICAL_0_Z1_ZONEEQUIPMENTOUTLETNODE,Air,2
 Node,162,OFFICE_OPEN_0_Z2_ZONEEQUIPMENTOUTLETNODE,Air,2
 Node,163,OFFICE_PRIVATE_0_Z3_ZONEEQUIPMENTOUTLETNODE,Air,2
 Node,164,STORAGE_0_Z4_ZONEEQUIPMENTOUTLETNODE,Air,2
 Node,165,LOBBY_1_Z5_ZONEEQUIPMENTOUTLETNODE,Air,2
 Node,166,CONFERENCE_1_Z6_ZONEEQUIPMENTOUTLETNODE,Air,2
 Node,167,BREAK_ROOM_1_Z7_ZONEEQUIPMENTOUTLETNODE,Air,2
 Node,168,OFFICE_OPEN_1_Z8_ZONEEQUIPMENTOUTLETNODE,Air,2
 Node,169,OFFICE_PRIVATE_1_Z9_ZONEEQUIPMENTOUTLETNODE,Air,2
 Node,170,CONFERENCE_2_Z10_ZONEEQUIPMENTOUTLETNODE,Air,2
 Node,171,BREAK_ROOM_2_Z11_ZONEEQUIPMENTOUTLETNODE,Air,2
 Node,172,OFFICE_PRIVATE_2_Z12_ZONEEQUIPMENTOUTLETNODE,Air,2
 Node,173,CONFERENCE_3_Z13_ZONEEQUIPMENTOUTLETNODE,Air,2
 Node,174,MECHANICAL_3_Z14_ZONEEQUIPMENTOUTLETNODE,Air,2
 Node,175,OFFICE_OPEN_3_Z15_ZONEEQUIPMENTOUTLETNODE,Air,2
 Node,176,OFFICE_PRIVATE_3_Z16_ZONEEQUIPMENTOUTLETNODE,Air,2
 Node,177,STORAGE_3_Z17_ZONEEQUIPMENTOUTLETNODE,Air,2
 Node,178,CONFERENCE_4_Z18_ZONEEQUIPMENTOUTLETNODE,Air,2
 Node,179,OFFICE_OPEN_4_Z19_ZONEEQUIPMENTOUTLETNODE,Air,2
 Node,180,STORAGE_4_Z20_ZONEEQUIPMENTOUTLETNODE,Air,2
 Node,181,MECHANICAL_0_Z1_TERMINALINLET,Air,1
 Node,182,OFFICE_OPEN_0_Z2_TERMINALINLET,Air,1
 Node,183,OFFICE_PRIVATE_0_Z3_TERMINALINLET,Air,1
 Node,184,STORAGE_0_Z4_TERMINALINLET,Air,1
 Node,185,LOBBY_1_Z5_TERMINALINLET,Air,1
 Node,186,CONFERENCE_1_Z6_TERMINALINLET,Air,1
 Node,187,BREAK_ROOM_1_Z7_TERMINALINLET,Air,1
 Node,188,OFFICE_OPEN_1_Z8_TERMINALINLET,Air,1
 Node,189,OFFICE_PRIVATE_1_Z9_TERMINALINLET,Air,1
 Node,190,CONFERENCE_2_Z10_TERMINALINLET,Air,1
 Node,191,BREAK_ROOM_2_Z11_TERMINALINLET,Air,1
 Node,192,OFFICE_PRIVATE_2_Z12_TERMINALINLET,Air,1
 Node,193,CONFERENCE_3_Z13_TERMINALINLET,Air,1
 Node,194,MECHANICAL_3_Z14_TERMINALINLET,Air,1
 Node,195,OFFICE_OPEN_3_Z15_TERMINALINLET,Air,1
 Node,196,OFFICE_PRIVATE_3_Z16_TERMINALINLET,Air,1
 Node,197,STORAGE_3_Z17_TERMINALINLET,Air,1
 Node,198,CONFERENCE_4_Z18_TERMINALINLET,Air,1
 Node,199,OFFICE_OPEN_4_Z19_TERMINALINLET,Air,1
 Node,200,STORAGE_4_Z20_TERMINALINLET,Air,1
 Node,201,MECHANICAL_0_Z1_TERMINALOUTLET,Air,1
 Node,202,OFFICE_OPEN_0_Z2_TERMINALOUTLET,Air,1
 Node,203,OFFICE_PRIVATE_0_Z3_TERMINALOUTLET,Air,1
 Node,204,STORAGE_0_Z4_TERMINALOUTLET,Air,1
 Node,205,LOBBY_1_Z5_TERMINALOUTLET,Air,1
 Node,206,CONFERENCE_1_Z6_TERMINALOUTLET,Air,1
 Node,207,BREAK_ROOM_1_Z7_TERMINALOUTLET,Air,1
 Node,208,OFFICE_OPEN_1_Z8_TERMINALOUTLET,Air,1
 Node,209,OFFICE_PRIVATE_1_Z9_TERMINALOUTLET,Air,1
 Node,210,CONFERENCE_2_Z10_TERMINALOUTLET,Air,1
 Node,211,BREAK_ROOM_2_Z11_TERMINALOUTLET,Air,1
 Node,212,OFFICE_PRIVATE_2_Z12_TERMINALOUTLET,Air,1
 Node,213,CONFERENCE_3_Z13_TERMINALOUTLET,Air,1
 Node,214,MECHANICAL_3_Z14_TERMINALOUTLET,Air,1
 Node,215,OFFICE_OPEN_3_Z15_TERMINALOUTLET,Air,1
 Node,216,OFFICE_PRIVATE_3_Z16_TERMINALOUTLET,Air,1
 Node,217,STORAGE_3_Z17_TERMINALOUTLET,Air,1
 Node,218,CONFERENCE_4_Z18_TERMINALOUTLET,Air,1
 Node,219,OFFICE_OPEN_4_Z19_TERMINALOUTLET,Air,1
 Node,220,STORAGE_4_Z20_TERMINALOUTLET,Air,1
! ===============================================================
! Suspicious nodes have 0 references.  It is normal for some nodes, however.
! Listing nodes with 0 references (culled from previous list):
! <Suspicious Node>,<NodeNumber>,<Node Name>,<Node Fluid Type>,<# Times Node Referenced After Definition>
 Suspicious Node,101,MECHANICAL_0 AIR NODE,Air,0
 Suspicious Node,103,OFFICE_OPEN_0 AIR NODE,Air,0
 Suspicious Node,105,OFFICE_PRIVATE_0 AIR NODE,Air,0
 Suspicious Node,107,STORAGE_0 AIR NODE,Air,0
 Suspicious Node,109,LOBBY_1 AIR NODE,Air,0
 Suspicious Node,111,CONFERENCE_1 AIR NODE,Air,0
 Suspicious Node,113,BREAK_ROOM_1 AIR NODE,Air,0
 Suspicious Node,115,OFFICE_OPEN_1 AIR NODE,Air,0
 Suspicious Node,117,OFFICE_PRIVATE_1 AIR NODE,Air,0
 Suspicious Node,119,CONFERENCE_2 AIR NODE,Air,0
 Suspicious Node,121,BREAK_ROOM_2 AIR NODE,Air,0
 Suspicious Node,123,OFFICE_PRIVATE_2 AIR NODE,Air,0
 Suspicious Node,125,CONFERENCE_3 AIR NODE,Air,0
 Suspicious Node,127,MECHANICAL_3 AIR NODE,Air,0
 Suspicious Node,129,OFFICE_OPEN_3 AIR NODE,Air,0
 Suspicious Node,131,OFFICE_PRIVATE_3 AIR NODE,Air,0
 Suspicious Node,133,STORAGE_3 AIR NODE,Air,0
 Suspicious Node,135,CONFERENCE_4 AIR NODE,Air,0
 Suspicious Node,137,OFFICE_OPEN_4 AIR NODE,Air,0
 Suspicious Node,139,STORAGE_4 AIR NODE,Air,0
! ===============================================================
! <#Branch Lists>,<Number of Branch Lists>
 #Branch Lists,20
! <Branch List>,<Branch List Count>,<Branch List Name>,<Loop Name>,<Loop Type>,<Number of Branches>
! <Branch>,<Branch Count>,<Branch Name>,<Loop Name>,<Loop Type>,<Branch Inlet Node Name>,<Branch Outlet Node Name>
 Branch List,1,MECHANICAL_0_Z1_BRANCHLIST,MECHANICAL_0_Z1_AIRLOOP,Air,1
   Branch,1,MECHANICAL_0_Z1_MAINBRANCH,MECHANICAL_0_Z1_AIRLOOP,Air,MECHANICAL_0_Z1_SUPPLYINLET,MECHANICAL_0_Z1_SUPPLYEQUIPMENTOUTLETNODE
 Branch List,2,OFFICE_OPEN_0_Z2_BRANCHLIST,OFFICE_OPEN_0_Z2_AIRLOOP,Air,1
   Branch,1,OFFICE_OPEN_0_Z2_MAINBRANCH,OFFICE_OPEN_0_Z2_AIRLOOP,Air,OFFICE_OPEN_0_Z2_SUPPLYINLET,OFFICE_OPEN_0_Z2_SUPPLYEQUIPMENTOUTLETNODE
 Branch List,3,OFFICE_PRIVATE_0_Z3_BRANCHLIST,OFFICE_PRIVATE_0_Z3_AIRLOOP,Air,1
   Branch,1,OFFICE_PRIVATE_0_Z3_MAINBRANCH,OFFICE_PRIVATE_0_Z3_AIRLOOP,Air,OFFICE_PRIVATE_0_Z3_SUPPLYINLET,OFFICE_PRIVATE_0_Z3_SUPPLYEQUIPMENTOUTLETNODE
 Branch List,4,STORAGE_0_Z4_BRANCHLIST,STORAGE_0_Z4_AIRLOOP,Air,1
   Branch,1,STORAGE_0_Z4_MAINBRANCH,STORAGE_0_Z4_AIRLOOP,Air,STORAGE_0_Z4_SUPPLYINLET,STORAGE_0_Z4_SUPPLYEQUIPMENTOUTLETNODE
 Branch List,5,LOBBY_1_Z5_BRANCHLIST,LOBBY_1_Z5_AIRLOOP,Air,1
   Branch,1,LOBBY_1_Z5_MAINBRANCH,LOBBY_1_Z5_AIRLOOP,Air,LOBBY_1_Z5_SUPPLYINLET,LOBBY_1_Z5_SUPPLYEQUIPMENTOUTLETNODE
 Branch List,6,CONFERENCE_1_Z6_BRANCHLIST,CONFERENCE_1_Z6_AIRLOOP,Air,1
   Branch,1,CONFERENCE_1_Z6_MAINBRANCH,CONFERENCE_1_Z6_AIRLOOP,Air,CONFERENCE_1_Z6_SUPPLYINLET,CONFERENCE_1_Z6_SUPPLYEQUIPMENTOUTLETNODE
 Branch List,7,BREAK_ROOM_1_Z7_BRANCHLIST,BREAK_ROOM_1_Z7_AIRLOOP,Air,1
   Branch,1,BREAK_ROOM_1_Z7_MAINBRANCH,BREAK_ROOM_1_Z7_AIRLOOP,Air,BREAK_ROOM_1_Z7_SUPPLYINLET,BREAK_ROOM_1_Z7_SUPPLYEQUIPMENTOUTLETNODE
 Branch List,8,OFFICE_OPEN_1_Z8_BRANCHLIST,OFFICE_OPEN_1_Z8_AIRLOOP,Air,1
   Branch,1,OFFICE_OPEN_1_Z8_MAINBRANCH,OFFICE_OPEN_1_Z8_AIRLOOP,Air,OFFICE_OPEN_1_Z8_SUPPLYINLET,OFFICE_OPEN_1_Z8_SUPPLYEQUIPMENTOUTLETNODE
 Branch List,9,OFFICE_PRIVATE_1_Z9_BRANCHLIST,OFFICE_PRIVATE_1_Z9_AIRLOOP,Air,1
   Branch,1,OFFICE_PRIVATE_1_Z9_MAINBRANCH,OFFICE_PRIVATE_1_Z9_AIRLOOP,Air,OFFICE_PRIVATE_1_Z9_SUPPLYINLET,OFFICE_PRIVATE_1_Z9_SUPPLYEQUIPMENTOUTLETNODE
 Branch List,10,CONFERENCE_2_Z10_BRANCHLIST,CONFERENCE_2_Z10_AIRLOOP,Air,1
   Branch,1,CONFERENCE_2_Z10_MAINBRANCH,CONFERENCE_2_Z10_AIRLOOP,Air,CONFERENCE_2_Z10_SUPPLYINLET,CONFERENCE_2_Z10_SUPPLYEQUIPMENTOUTLETNODE
 Branch List,11,BREAK_ROOM_2_Z11_BRANCHLIST,BREAK_ROOM_2_Z11_AIRLOOP,Air,1
   Branch,1,BREAK_ROOM_2_Z11_MAINBRANCH,BREAK_ROOM_2_Z11_AIRLOOP,Air,BREAK_ROOM_2_Z11_SUPPLYINLET,BREAK_ROOM_2_Z11_SUPPLYEQUIPMENTOUTLETNODE
 Branch List,12,OFFICE_PRIVATE_2_Z12_BRANCHLIST,OFFICE_PRIVATE_2_Z12_AIRLOOP,Air,1
   Branch,1,OFFICE_PRIVATE_2_Z12_MAINBRANCH,OFFICE_PRIVATE_2_Z12_AIRLOOP,Air,OFFICE_PRIVATE_2_Z12_SUPPLYINLET,OFFICE_PRIVATE_2_Z12_SUPPLYEQUIPMENTOUTLETNODE
 Branch List,13,CONFERENCE_3_Z13_BRANCHLIST,CONFERENCE_3_Z13_AIRLOOP,Air,1
   Branch,1,CONFERENCE_3_Z13_MAINBRANCH,CONFERENCE_3_Z13_AIRLOOP,Air,CONFERENCE_3_Z13_SUPPLYINLET,CONFERENCE_3_Z13_SUPPLYEQUIPMENTOUTLETNODE
 Branch List,14,MECHANICAL_3_Z14_BRANCHLIST,MECHANICAL_3_Z14_AIRLOOP,Air,1
   Branch,1,MECHANICAL_3_Z14_MAINBRANCH,MECHANICAL_3_Z14_AIRLOOP,Air,MECHANICAL_3_Z14_SUPPLYINLET,MECHANICAL_3_Z14_SUPPLYEQUIPMENTOUTLETNODE
 Branch List,15,OFFICE_OPEN_3_Z15_BRANCHLIST,OFFICE_OPEN_3_Z15_AIRLOOP,Air,1
   Branch,1,OFFICE_OPEN_3_Z15_MAINBRANCH,OFFICE_OPEN_3_Z15_AIRLOOP,Air,OFFICE_OPEN_3_Z15_SUPPLYINLET,OFFICE_OPEN_3_Z15_SUPPLYEQUIPMENTOUTLETNODE
 Branch List,16,OFFICE_PRIVATE_3_Z16_BRANCHLIST,OFFICE_PRIVATE_3_Z16_AIRLOOP,Air,1
   Branch,1,OFFICE_PRIVATE_3_Z16_MAINBRANCH,OFFICE_PRIVATE_3_Z16_AIRLOOP,Air,OFFICE_PRIVATE_3_Z16_SUPPLYINLET,OFFICE_PRIVATE_3_Z16_SUPPLYEQUIPMENTOUTLETNODE
 Branch List,17,STORAGE_3_Z17_BRANCHLIST,STORAGE_3_Z17_AIRLOOP,Air,1
   Branch,1,STORAGE_3_Z17_MAINBRANCH,STORAGE_3_Z17_AIRLOOP,Air,STORAGE_3_Z17_SUPPLYINLET,STORAGE_3_Z17_SUPPLYEQUIPMENTOUTLETNODE
 Branch List,18,CONFERENCE_4_Z18_BRANCHLIST,CONFERENCE_4_Z18_AIRLOOP,Air,1
   Branch,1,CONFERENCE_4_Z18_MAINBRANCH,CONFERENCE_4_Z18_AIRLOOP,Air,CONFERENCE_4_Z18_SUPPLYINLET,CONFERENCE_4_Z18_SUPPLYEQUIPMENTOUTLETNODE
 Branch List,19,OFFICE_OPEN_4_Z19_BRANCHLIST,OFFICE_OPEN_4_Z19_AIRLOOP,Air,1
   Branch,1,OFFICE_OPEN_4_Z19_MAINBRANCH,OFFICE_OPEN_4_Z19_AIRLOOP,Air,OFFICE_OPEN_4_Z19_SUPPLYINLET,OFFICE_OPEN_4_Z19_SUPPLYEQUIPMENTOUTLETNODE
 Branch List,20,STORAGE_4_Z20_BRANCHLIST,STORAGE_4_Z20_AIRLOOP,Air,1
   Branch,1,STORAGE_4_Z20_MAINBRANCH,STORAGE_4_Z20_AIRLOOP,Air,STORAGE_4_Z20_SUPPLYINLET,STORAGE_4_Z20_SUPPLYEQUIPMENTOUTLETNODE
! ===============================================================
! <#Supply Air Paths>,<Number of Supply Air Paths>
 #Supply Air Paths,20
! <Supply Air Path>,<Supply Air Path Count>,<Supply Air Path Name>,<AirLoopHVAC Name>
! <#Components on Supply Air Path>,<Number of Components>
! <Supply Air Path Component>,<Component Count>,<Component Type>,<Component Name>,<AirLoopHVAC Name>
! <#Outlet Nodes on Supply Air Path Component>,<Number of Nodes>
! <Supply Air Path Component Nodes>,<Node Count>,<Component Type>,<Component Name>,<Inlet Node Name>,<Outlet Node Name>,<AirLoopHVAC Name>
 Supply Air Path,1,MECHANICAL_0_Z1,MECHANICAL_0_Z1_AIRLOOP
   #Components on Supply Air Path,1
   Supply Air Path Component,1,AIRLOOPHVAC:ZONESPLITTER,MECHANICAL_0_Z1_SUPPLYSPLITTER,MECHANICAL_0_Z1_AIRLOOP
     #Outlet Nodes on Supply Air Path Component,1
     Supply Air Path Component Nodes,1,AIRLOOPHVAC:ZONESPLITTER,MECHANICAL_0_Z1_SUPPLYSPLITTER,MECHANICAL_0_Z1_ZONEEQUIPMENTINLET,MECHANICAL_0_Z1_TERMINALINLET,MECHANICAL_0_Z1_AIRLOOP
! <#Nodes on Supply Air Path>,<Number of Nodes>
! <Supply Air Path Node>,<Node Type>,<Node Count>,<Node Name>,<AirLoopHVAC Name>
#Nodes on Supply Air Path,2
   Supply Air Path Node,Inlet Node,1,MECHANICAL_0_Z1_ZONEEQUIPMENTINLET,MECHANICAL_0_Z1_AIRLOOP
   Supply Air Path Node,Outlet Node,2,MECHANICAL_0_Z1_TERMINALINLET,MECHANICAL_0_Z1_AIRLOOP
 Supply Air Path,2,OFFICE_OPEN_0_Z2,OFFICE_OPEN_0_Z2_AIRLOOP
   #Components on Supply Air Path,1
   Supply Air Path Component,1,AIRLOOPHVAC:ZONESPLITTER,OFFICE_OPEN_0_Z2_SUPPLYSPLITTER,OFFICE_OPEN_0_Z2_AIRLOOP
     #Outlet Nodes on Supply Air Path Component,1
     Supply Air Path Component Nodes,1,AIRLOOPHVAC:ZONESPLITTER,OFFICE_OPEN_0_Z2_SUPPLYSPLITTER,OFFICE_OPEN_0_Z2_ZONEEQUIPMENTINLET,OFFICE_OPEN_0_Z2_TERMINALINLET,OFFICE_OPEN_0_Z2_AIRLOOP
! <#Nodes on Supply Air Path>,<Number of Nodes>
! <Supply Air Path Node>,<Node Type>,<Node Count>,<Node Name>,<AirLoopHVAC Name>
#Nodes on Supply Air Path,2
   Supply Air Path Node,Inlet Node,1,OFFICE_OPEN_0_Z2_ZONEEQUIPMENTINLET,OFFICE_OPEN_0_Z2_AIRLOOP
   Supply Air Path Node,Outlet Node,2,OFFICE_OPEN_0_Z2_TERMINALINLET,OFFICE_OPEN_0_Z2_AIRLOOP
 Supply Air Path,3,OFFICE_PRIVATE_0_Z3,OFFICE_PRIVATE_0_Z3_AIRLOOP
   #Components on Supply Air Path,1
   Supply Air Path Component,1,AIRLOOPHVAC:ZONESPLITTER,OFFICE_PRIVATE_0_Z3_SUPPLYSPLITTER,OFFICE_PRIVATE_0_Z3_AIRLOOP
     #Outlet Nodes on Supply Air Path Component,1
     Supply Air Path Component Nodes,1,AIRLOOPHVAC:ZONESPLITTER,OFFICE_PRIVATE_0_Z3_SUPPLYSPLITTER,OFFICE_PRIVATE_0_Z3_ZONEEQUIPMENTINLET,OFFICE_PRIVATE_0_Z3_TERMINALINLET,OFFICE_PRIVATE_0_Z3_AIRLOOP
! <#Nodes on Supply Air Path>,<Number of Nodes>
! <Supply Air Path Node>,<Node Type>,<Node Count>,<Node Name>,<AirLoopHVAC Name>
#Nodes on Supply Air Path,2
   Supply Air Path Node,Inlet Node,1,OFFICE_PRIVATE_0_Z3_ZONEEQUIPMENTINLET,OFFICE_PRIVATE_0_Z3_AIRLOOP
   Supply Air Path Node,Outlet Node,2,OFFICE_PRIVATE_0_Z3_TERMINALINLET,OFFICE_PRIVATE_0_Z3_AIRLOOP
 Supply Air Path,4,STORAGE_0_Z4,STORAGE_0_Z4_AIRLOOP
   #Components on Supply Air Path,1
   Supply Air Path Component,1,AIRLOOPHVAC:ZONESPLITTER,STORAGE_0_Z4_SUPPLYSPLITTER,STORAGE_0_Z4_AIRLOOP
     #Outlet Nodes on Supply Air Path Component,1
     Supply Air Path Component Nodes,1,AIRLOOPHVAC:ZONESPLITTER,STORAGE_0_Z4_SUPPLYSPLITTER,STORAGE_0_Z4_ZONEEQUIPMENTINLET,STORAGE_0_Z4_TERMINALINLET,STORAGE_0_Z4_AIRLOOP
! <#Nodes on Supply Air Path>,<Number of Nodes>
! <Supply Air Path Node>,<Node Type>,<Node Count>,<Node Name>,<AirLoopHVAC Name>
#Nodes on Supply Air Path,2
   Supply Air Path Node,Inlet Node,1,STORAGE_0_Z4_ZONEEQUIPMENTINLET,STORAGE_0_Z4_AIRLOOP
   Supply Air Path Node,Outlet Node,2,STORAGE_0_Z4_TERMINALINLET,STORAGE_0_Z4_AIRLOOP
 Supply Air Path,5,LOBBY_1_Z5,LOBBY_1_Z5_AIRLOOP
   #Components on Supply Air Path,1
   Supply Air Path Component,1,AIRLOOPHVAC:ZONESPLITTER,LOBBY_1_Z5_SUPPLYSPLITTER,LOBBY_1_Z5_AIRLOOP
     #Outlet Nodes on Supply Air Path Component,1
     Supply Air Path Component Nodes,1,AIRLOOPHVAC:ZONESPLITTER,LOBBY_1_Z5_SUPPLYSPLITTER,LOBBY_1_Z5_ZONEEQUIPMENTINLET,LOBBY_1_Z5_TERMINALINLET,LOBBY_1_Z5_AIRLOOP
! <#Nodes on Supply Air Path>,<Number of Nodes>
! <Supply Air Path Node>,<Node Type>,<Node Count>,<Node Name>,<AirLoopHVAC Name>
#Nodes on Supply Air Path,2
   Supply Air Path Node,Inlet Node,1,LOBBY_1_Z5_ZONEEQUIPMENTINLET,LOBBY_1_Z5_AIRLOOP
   Supply Air Path Node,Outlet Node,2,LOBBY_1_Z5_TERMINALINLET,LOBBY_1_Z5_AIRLOOP
 Supply Air Path,6,CONFERENCE_1_Z6,CONFERENCE_1_Z6_AIRLOOP
   #Components on Supply Air Path,1
   Supply Air Path Component,1,AIRLOOPHVAC:ZONESPLITTER,CONFERENCE_1_Z6_SUPPLYSPLITTER,CONFERENCE_1_Z6_AIRLOOP
     #Outlet Nodes on Supply Air Path Component,1
     Supply Air Path Component Nodes,1,AIRLOOPHVAC:ZONESPLITTER,CONFERENCE_1_Z6_SUPPLYSPLITTER,CONFERENCE_1_Z6_ZONEEQUIPMENTINLET,CONFERENCE_1_Z6_TERMINALINLET,CONFERENCE_1_Z6_AIRLOOP
! <#Nodes on Supply Air Path>,<Number of Nodes>
! <Supply Air Path Node>,<Node Type>,<Node Count>,<Node Name>,<AirLoopHVAC Name>
#Nodes on Supply Air Path,2
   Supply Air Path Node,Inlet Node,1,CONFERENCE_1_Z6_ZONEEQUIPMENTINLET,CONFERENCE_1_Z6_AIRLOOP
   Supply Air Path Node,Outlet Node,2,CONFERENCE_1_Z6_TERMINALINLET,CONFERENCE_1_Z6_AIRLOOP
 Supply Air Path,7,BREAK_ROOM_1_Z7,BREAK_ROOM_1_Z7_AIRLOOP
   #Components on Supply Air Path,1
   Supply Air Path Component,1,AIRLOOPHVAC:ZONESPLITTER,BREAK_ROOM_1_Z7_SUPPLYSPLITTER,BREAK_ROOM_1_Z7_AIRLOOP
     #Outlet Nodes on Supply Air Path Component,1
     Supply Air Path Component Nodes,1,AIRLOOPHVAC:ZONESPLITTER,BREAK_ROOM_1_Z7_SUPPLYSPLITTER,BREAK_ROOM_1_Z7_ZONEEQUIPMENTINLET,BREAK_ROOM_1_Z7_TERMINALINLET,BREAK_ROOM_1_Z7_AIRLOOP
! <#Nodes on Supply Air Path>,<Number of Nodes>
! <Supply Air Path Node>,<Node Type>,<Node Count>,<Node Name>,<AirLoopHVAC Name>
#Nodes on Supply Air Path,2
   Supply Air Path Node,Inlet Node,1,BREAK_ROOM_1_Z7_ZONEEQUIPMENTINLET,BREAK_ROOM_1_Z7_AIRLOOP
   Supply Air Path Node,Outlet Node,2,BREAK_ROOM_1_Z7_TERMINALINLET,BREAK_ROOM_1_Z7_AIRLOOP
 Supply Air Path,8,OFFICE_OPEN_1_Z8,OFFICE_OPEN_1_Z8_AIRLOOP
   #Components on Supply Air Path,1
   Supply Air Path Component,1,AIRLOOPHVAC:ZONESPLITTER,OFFICE_OPEN_1_Z8_SUPPLYSPLITTER,OFFICE_OPEN_1_Z8_AIRLOOP
     #Outlet Nodes on Supply Air Path Component,1
     Supply Air Path Component Nodes,1,AIRLOOPHVAC:ZONESPLITTER,OFFICE_OPEN_1_Z8_SUPPLYSPLITTER,OFFICE_OPEN_1_Z8_ZONEEQUIPMENTINLET,OFFICE_OPEN_1_Z8_TERMINALINLET,OFFICE_OPEN_1_Z8_AIRLOOP
! <#Nodes on Supply Air Path>,<Number of Nodes>
! <Supply Air Path Node>,<Node Type>,<Node Count>,<Node Name>,<AirLoopHVAC Name>
#Nodes on Supply Air Path,2
   Supply Air Path Node,Inlet Node,1,OFFICE_OPEN_1_Z8_ZONEEQUIPMENTINLET,OFFICE_OPEN_1_Z8_AIRLOOP
   Supply Air Path Node,Outlet Node,2,OFFICE_OPEN_1_Z8_TERMINALINLET,OFFICE_OPEN_1_Z8_AIRLOOP
 Supply Air Path,9,OFFICE_PRIVATE_1_Z9,OFFICE_PRIVATE_1_Z9_AIRLOOP
   #Components on Supply Air Path,1
   Supply Air Path Component,1,AIRLOOPHVAC:ZONESPLITTER,OFFICE_PRIVATE_1_Z9_SUPPLYSPLITTER,OFFICE_PRIVATE_1_Z9_AIRLOOP
     #Outlet Nodes on Supply Air Path Component,1
     Supply Air Path Component Nodes,1,AIRLOOPHVAC:ZONESPLITTER,OFFICE_PRIVATE_1_Z9_SUPPLYSPLITTER,OFFICE_PRIVATE_1_Z9_ZONEEQUIPMENTINLET,OFFICE_PRIVATE_1_Z9_TERMINALINLET,OFFICE_PRIVATE_1_Z9_AIRLOOP
! <#Nodes on Supply Air Path>,<Number of Nodes>
! <Supply Air Path Node>,<Node Type>,<Node Count>,<Node Name>,<AirLoopHVAC Name>
#Nodes on Supply Air Path,2
   Supply Air Path Node,Inlet Node,1,OFFICE_PRIVATE_1_Z9_ZONEEQUIPMENTINLET,OFFICE_PRIVATE_1_Z9_AIRLOOP
   Supply Air Path Node,Outlet Node,2,OFFICE_PRIVATE_1_Z9_TERMINALINLET,OFFICE_PRIVATE_1_Z9_AIRLOOP
 Supply Air Path,10,CONFERENCE_2_Z10,CONFERENCE_2_Z10_AIRLOOP
   #Components on Supply Air Path,1
   Supply Air Path Component,1,AIRLOOPHVAC:ZONESPLITTER,CONFERENCE_2_Z10_SUPPLYSPLITTER,CONFERENCE_2_Z10_AIRLOOP
     #Outlet Nodes on Supply Air Path Component,1
     Supply Air Path Component Nodes,1,AIRLOOPHVAC:ZONESPLITTER,CONFERENCE_2_Z10_SUPPLYSPLITTER,CONFERENCE_2_Z10_ZONEEQUIPMENTINLET,CONFERENCE_2_Z10_TERMINALINLET,CONFERENCE_2_Z10_AIRLOOP
! <#Nodes on Supply Air Path>,<Number of Nodes>
! <Supply Air Path Node>,<Node Type>,<Node Count>,<Node Name>,<AirLoopHVAC Name>
#Nodes on Supply Air Path,2
   Supply Air Path Node,Inlet Node,1,CONFERENCE_2_Z10_ZONEEQUIPMENTINLET,CONFERENCE_2_Z10_AIRLOOP
   Supply Air Path Node,Outlet Node,2,CONFERENCE_2_Z10_TERMINALINLET,CONFERENCE_2_Z10_AIRLOOP
 Supply Air Path,11,BREAK_ROOM_2_Z11,BREAK_ROOM_2_Z11_AIRLOOP
   #Components on Supply Air Path,1
   Supply Air Path Component,1,AIRLOOPHVAC:ZONESPLITTER,BREAK_ROOM_2_Z11_SUPPLYSPLITTER,BREAK_ROOM_2_Z11_AIRLOOP
     #Outlet Nodes on Supply Air Path Component,1
     Supply Air Path Component Nodes,1,AIRLOOPHVAC:ZONESPLITTER,BREAK_ROOM_2_Z11_SUPPLYSPLITTER,BREAK_ROOM_2_Z11_ZONEEQUIPMENTINLET,BREAK_ROOM_2_Z11_TERMINALINLET,BREAK_ROOM_2_Z11_AIRLOOP
! <#Nodes on Supply Air Path>,<Number of Nodes>
! <Supply Air Path Node>,<Node Type>,<Node Count>,<Node Name>,<AirLoopHVAC Name>
#Nodes on Supply Air Path,2
   Supply Air Path Node,Inlet Node,1,BREAK_ROOM_2_Z11_ZONEEQUIPMENTINLET,BREAK_ROOM_2_Z11_AIRLOOP
   Supply Air Path Node,Outlet Node,2,BREAK_ROOM_2_Z11_TERMINALINLET,BREAK_ROOM_2_Z11_AIRLOOP
 Supply Air Path,12,OFFICE_PRIVATE_2_Z12,OFFICE_PRIVATE_2_Z12_AIRLOOP
   #Components on Supply Air Path,1
   Supply Air Path Component,1,AIRLOOPHVAC:ZONESPLITTER,OFFICE_PRIVATE_2_Z12_SUPPLYSPLITTER,OFFICE_PRIVATE_2_Z12_AIRLOOP
     #Outlet Nodes on Supply Air Path Component,1
     Supply Air Path Component Nodes,1,AIRLOOPHVAC:ZONESPLITTER,OFFICE_PRIVATE_2_Z12_SUPPLYSPLITTER,OFFICE_PRIVATE_2_Z12_ZONEEQUIPMENTINLET,OFFICE_PRIVATE_2_Z12_TERMINALINLET,OFFICE_PRIVATE_2_Z12_AIRLOOP
! <#Nodes on Supply Air Path>,<Number of Nodes>
! <Supply Air Path Node>,<Node Type>,<Node Count>,<Node Name>,<AirLoopHVAC Name>
#Nodes on Supply Air Path,2
   Supply Air Path Node,Inlet Node,1,OFFICE_PRIVATE_2_Z12_ZONEEQUIPMENTINLET,OFFICE_PRIVATE_2_Z12_AIRLOOP
   Supply Air Path Node,Outlet Node,2,OFFICE_PRIVATE_2_Z12_TERMINALINLET,OFFICE_PRIVATE_2_Z12_AIRLOOP
 Supply Air Path,13,CONFERENCE_3_Z13,CONFERENCE_3_Z13_AIRLOOP
   #Components on Supply Air Path,1
   Supply Air Path Component,1,AIRLOOPHVAC:ZONESPLITTER,CONFERENCE_3_Z13_SUPPLYSPLITTER,CONFERENCE_3_Z13_AIRLOOP
     #Outlet Nodes on Supply Air Path Component,1
     Supply Air Path Component Nodes,1,AIRLOOPHVAC:ZONESPLITTER,CONFERENCE_3_Z13_SUPPLYSPLITTER,CONFERENCE_3_Z13_ZONEEQUIPMENTINLET,CONFERENCE_3_Z13_TERMINALINLET,CONFERENCE_3_Z13_AIRLOOP
! <#Nodes on Supply Air Path>,<Number of Nodes>
! <Supply Air Path Node>,<Node Type>,<Node Count>,<Node Name>,<AirLoopHVAC Name>
#Nodes on Supply Air Path,2
   Supply Air Path Node,Inlet Node,1,CONFERENCE_3_Z13_ZONEEQUIPMENTINLET,CONFERENCE_3_Z13_AIRLOOP
   Supply Air Path Node,Outlet Node,2,CONFERENCE_3_Z13_TERMINALINLET,CONFERENCE_3_Z13_AIRLOOP
 Supply Air Path,14,MECHANICAL_3_Z14,MECHANICAL_3_Z14_AIRLOOP
   #Components on Supply Air Path,1
   Supply Air Path Component,1,AIRLOOPHVAC:ZONESPLITTER,MECHANICAL_3_Z14_SUPPLYSPLITTER,MECHANICAL_3_Z14_AIRLOOP
     #Outlet Nodes on Supply Air Path Component,1
     Supply Air Path Component Nodes,1,AIRLOOPHVAC:ZONESPLITTER,MECHANICAL_3_Z14_SUPPLYSPLITTER,MECHANICAL_3_Z14_ZONEEQUIPMENTINLET,MECHANICAL_3_Z14_TERMINALINLET,MECHANICAL_3_Z14_AIRLOOP
! <#Nodes on Supply Air Path>,<Number of Nodes>
! <Supply Air Path Node>,<Node Type>,<Node Count>,<Node Name>,<AirLoopHVAC Name>
#Nodes on Supply Air Path,2
   Supply Air Path Node,Inlet Node,1,MECHANICAL_3_Z14_ZONEEQUIPMENTINLET,MECHANICAL_3_Z14_AIRLOOP
   Supply Air Path Node,Outlet Node,2,MECHANICAL_3_Z14_TERMINALINLET,MECHANICAL_3_Z14_AIRLOOP
 Supply Air Path,15,OFFICE_OPEN_3_Z15,OFFICE_OPEN_3_Z15_AIRLOOP
   #Components on Supply Air Path,1
   Supply Air Path Component,1,AIRLOOPHVAC:ZONESPLITTER,OFFICE_OPEN_3_Z15_SUPPLYSPLITTER,OFFICE_OPEN_3_Z15_AIRLOOP
     #Outlet Nodes on Supply Air Path Component,1
     Supply Air Path Component Nodes,1,AIRLOOPHVAC:ZONESPLITTER,OFFICE_OPEN_3_Z15_SUPPLYSPLITTER,OFFICE_OPEN_3_Z15_ZONEEQUIPMENTINLET,OFFICE_OPEN_3_Z15_TERMINALINLET,OFFICE_OPEN_3_Z15_AIRLOOP
! <#Nodes on Supply Air Path>,<Number of Nodes>
! <Supply Air Path Node>,<Node Type>,<Node Count>,<Node Name>,<AirLoopHVAC Name>
#Nodes on Supply Air Path,2
   Supply Air Path Node,Inlet Node,1,OFFICE_OPEN_3_Z15_ZONEEQUIPMENTINLET,OFFICE_OPEN_3_Z15_AIRLOOP
   Supply Air Path Node,Outlet Node,2,OFFICE_OPEN_3_Z15_TERMINALINLET,OFFICE_OPEN_3_Z15_AIRLOOP
 Supply Air Path,16,OFFICE_PRIVATE_3_Z16,OFFICE_PRIVATE_3_Z16_AIRLOOP
   #Components on Supply Air Path,1
   Supply Air Path Component,1,AIRLOOPHVAC:ZONESPLITTER,OFFICE_PRIVATE_3_Z16_SUPPLYSPLITTER,OFFICE_PRIVATE_3_Z16_AIRLOOP
     #Outlet Nodes on Supply Air Path Component,1
     Supply Air Path Component Nodes,1,AIRLOOPHVAC:ZONESPLITTER,OFFICE_PRIVATE_3_Z16_SUPPLYSPLITTER,OFFICE_PRIVATE_3_Z16_ZONEEQUIPMENTINLET,OFFICE_PRIVATE_3_Z16_TERMINALINLET,OFFICE_PRIVATE_3_Z16_AIRLOOP
! <#Nodes on Supply Air Path>,<Number of Nodes>
! <Supply Air Path Node>,<Node Type>,<Node Count>,<Node Name>,<AirLoopHVAC Name>
#Nodes on Supply Air Path,2
   Supply Air Path Node,Inlet Node,1,OFFICE_PRIVATE_3_Z16_ZONEEQUIPMENTINLET,OFFICE_PRIVATE_3_Z16_AIRLOOP
   Supply Air Path Node,Outlet Node,2,OFFICE_PRIVATE_3_Z16_TERMINALINLET,OFFICE_PRIVATE_3_Z16_AIRLOOP
 Supply Air Path,17,STORAGE_3_Z17,STORAGE_3_Z17_AIRLOOP
   #Components on Supply Air Path,1
   Supply Air Path Component,1,AIRLOOPHVAC:ZONESPLITTER,STORAGE_3_Z17_SUPPLYSPLITTER,STORAGE_3_Z17_AIRLOOP
     #Outlet Nodes on Supply Air Path Component,1
     Supply Air Path Component Nodes,1,AIRLOOPHVAC:ZONESPLITTER,STORAGE_3_Z17_SUPPLYSPLITTER,STORAGE_3_Z17_ZONEEQUIPMENTINLET,STORAGE_3_Z17_TERMINALINLET,STORAGE_3_Z17_AIRLOOP
! <#Nodes on Supply Air Path>,<Number of Nodes>
! <Supply Air Path Node>,<Node Type>,<Node Count>,<Node Name>,<AirLoopHVAC Name>
#Nodes on Supply Air Path,2
   Supply Air Path Node,Inlet Node,1,STORAGE_3_Z17_ZONEEQUIPMENTINLET,STORAGE_3_Z17_AIRLOOP
   Supply Air Path Node,Outlet Node,2,STORAGE_3_Z17_TERMINALINLET,STORAGE_3_Z17_AIRLOOP
 Supply Air Path,18,CONFERENCE_4_Z18,CONFERENCE_4_Z18_AIRLOOP
   #Components on Supply Air Path,1
   Supply Air Path Component,1,AIRLOOPHVAC:ZONESPLITTER,CONFERENCE_4_Z18_SUPPLYSPLITTER,CONFERENCE_4_Z18_AIRLOOP
     #Outlet Nodes on Supply Air Path Component,1
     Supply Air Path Component Nodes,1,AIRLOOPHVAC:ZONESPLITTER,CONFERENCE_4_Z18_SUPPLYSPLITTER,CONFERENCE_4_Z18_ZONEEQUIPMENTINLET,CONFERENCE_4_Z18_TERMINALINLET,CONFERENCE_4_Z18_AIRLOOP
! <#Nodes on Supply Air Path>,<Number of Nodes>
! <Supply Air Path Node>,<Node Type>,<Node Count>,<Node Name>,<AirLoopHVAC Name>
#Nodes on Supply Air Path,2
   Supply Air Path Node,Inlet Node,1,CONFERENCE_4_Z18_ZONEEQUIPMENTINLET,CONFERENCE_4_Z18_AIRLOOP
   Supply Air Path Node,Outlet Node,2,CONFERENCE_4_Z18_TERMINALINLET,CONFERENCE_4_Z18_AIRLOOP
 Supply Air Path,19,OFFICE_OPEN_4_Z19,OFFICE_OPEN_4_Z19_AIRLOOP
   #Components on Supply Air Path,1
   Supply Air Path Component,1,AIRLOOPHVAC:ZONESPLITTER,OFFICE_OPEN_4_Z19_SUPPLYSPLITTER,OFFICE_OPEN_4_Z19_AIRLOOP
     #Outlet Nodes on Supply Air Path Component,1
     Supply Air Path Component Nodes,1,AIRLOOPHVAC:ZONESPLITTER,OFFICE_OPEN_4_Z19_SUPPLYSPLITTER,OFFICE_OPEN_4_Z19_ZONEEQUIPMENTINLET,OFFICE_OPEN_4_Z19_TERMINALINLET,OFFICE_OPEN_4_Z19_AIRLOOP
! <#Nodes on Supply Air Path>,<Number of Nodes>
! <Supply Air Path Node>,<Node Type>,<Node Count>,<Node Name>,<AirLoopHVAC Name>
#Nodes on Supply Air Path,2
   Supply Air Path Node,Inlet Node,1,OFFICE_OPEN_4_Z19_ZONEEQUIPMENTINLET,OFFICE_OPEN_4_Z19_AIRLOOP
   Supply Air Path Node,Outlet Node,2,OFFICE_OPEN_4_Z19_TERMINALINLET,OFFICE_OPEN_4_Z19_AIRLOOP
 Supply Air Path,20,STORAGE_4_Z20,STORAGE_4_Z20_AIRLOOP
   #Components on Supply Air Path,1
   Supply Air Path Component,1,AIRLOOPHVAC:ZONESPLITTER,STORAGE_4_Z20_SUPPLYSPLITTER,STORAGE_4_Z20_AIRLOOP
     #Outlet Nodes on Supply Air Path Component,1
     Supply Air Path Component Nodes,1,AIRLOOPHVAC:ZONESPLITTER,STORAGE_4_Z20_SUPPLYSPLITTER,STORAGE_4_Z20_ZONEEQUIPMENTINLET,STORAGE_4_Z20_TERMINALINLET,STORAGE_4_Z20_AIRLOOP
! <#Nodes on Supply Air Path>,<Number of Nodes>
! <Supply Air Path Node>,<Node Type>,<Node Count>,<Node Name>,<AirLoopHVAC Name>
#Nodes on Supply Air Path,2
   Supply Air Path Node,Inlet Node,1,STORAGE_4_Z20_ZONEEQUIPMENTINLET,STORAGE_4_Z20_AIRLOOP
   Supply Air Path Node,Outlet Node,2,STORAGE_4_Z20_TERMINALINLET,STORAGE_4_Z20_AIRLOOP
! ===============================================================
! <#Return Air Paths>,<Number of Return Air Paths>
 #Return Air Paths,20
! <Return Air Path>,<Return Air Path Count>,<Return Air Path Name>,<AirLoopHVAC Name>
! <#Components on Return Air Path>,<Number of Components>
! <Return Air Path Component>,<Component Count>,<Component Type>,<Component Name>,<AirLoopHVAC Name>
! <#Inlet Nodes on Return Air Path Component>,<Number of Nodes>
! <Return Air Path Component Nodes>,<Node Count>,<Component Type>,<Component Name>,<Inlet Node Name>,<Outlet Node Name>,<AirLoopHVAC Name>
 Return Air Path,1,MECHANICAL_0_Z1_RETURNAIRPATH,MECHANICAL_0_Z1_AIRLOOP
   #Components on Return Air Path,1
   Return Air Path Component,1,AIRLOOPHVAC:ZONEMIXER,MECHANICAL_0_Z1_RETURNAIRMIXER,MECHANICAL_0_Z1_AIRLOOP
     #Inlet Nodes on Return Air Path Component,1
     Return Air Path Component Nodes,1,AIRLOOPHVAC:ZONEMIXER,MECHANICAL_0_Z1_RETURNAIRMIXER,MECHANICAL_0_Z1_RETURNAIR,MECHANICAL_0_Z1_ZONEEQUIPMENTOUTLETNODE,MECHANICAL_0_Z1_AIRLOOP
! <#Nodes on Return Air Path>,<Number of Nodes>
! <Return Air Path Node>,<Node Type>,<Node Count>,<Node Name>,<AirLoopHVAC Name>
   #Nodes on Return Air Path,2
   Return Air Path Node,Outlet Node,1,MECHANICAL_0_Z1_ZONEEQUIPMENTOUTLETNODE,MECHANICAL_0_Z1_AIRLOOP
   Return Air Path Node,Inlet Node,2,MECHANICAL_0_Z1_RETURNAIR,MECHANICAL_0_Z1_AIRLOOP
 Return Air Path,2,OFFICE_OPEN_0_Z2_RETURNAIRPATH,OFFICE_OPEN_0_Z2_AIRLOOP
   #Components on Return Air Path,1
   Return Air Path Component,1,AIRLOOPHVAC:ZONEMIXER,OFFICE_OPEN_0_Z2_RETURNAIRMIXER,OFFICE_OPEN_0_Z2_AIRLOOP
     #Inlet Nodes on Return Air Path Component,1
     Return Air Path Component Nodes,1,AIRLOOPHVAC:ZONEMIXER,OFFICE_OPEN_0_Z2_RETURNAIRMIXER,OFFICE_OPEN_0_Z2_RETURNAIR,OFFICE_OPEN_0_Z2_ZONEEQUIPMENTOUTLETNODE,OFFICE_OPEN_0_Z2_AIRLOOP
! <#Nodes on Return Air Path>,<Number of Nodes>
! <Return Air Path Node>,<Node Type>,<Node Count>,<Node Name>,<AirLoopHVAC Name>
   #Nodes on Return Air Path,2
   Return Air Path Node,Outlet Node,1,OFFICE_OPEN_0_Z2_ZONEEQUIPMENTOUTLETNODE,OFFICE_OPEN_0_Z2_AIRLOOP
   Return Air Path Node,Inlet Node,2,OFFICE_OPEN_0_Z2_RETURNAIR,OFFICE_OPEN_0_Z2_AIRLOOP
 Return Air Path,3,OFFICE_PRIVATE_0_Z3_RETURNAIRPATH,OFFICE_PRIVATE_0_Z3_AIRLOOP
   #Components on Return Air Path,1
   Return Air Path Component,1,AIRLOOPHVAC:ZONEMIXER,OFFICE_PRIVATE_0_Z3_RETURNAIRMIXER,OFFICE_PRIVATE_0_Z3_AIRLOOP
     #Inlet Nodes on Return Air Path Component,1
     Return Air Path Component Nodes,1,AIRLOOPHVAC:ZONEMIXER,OFFICE_PRIVATE_0_Z3_RETURNAIRMIXER,OFFICE_PRIVATE_0_Z3_RETURNAIR,OFFICE_PRIVATE_0_Z3_ZONEEQUIPMENTOUTLETNODE,OFFICE_PRIVATE_0_Z3_AIRLOOP
! <#Nodes on Return Air Path>,<Number of Nodes>
! <Return Air Path Node>,<Node Type>,<Node Count>,<Node Name>,<AirLoopHVAC Name>
   #Nodes on Return Air Path,2
   Return Air Path Node,Outlet Node,1,OFFICE_PRIVATE_0_Z3_ZONEEQUIPMENTOUTLETNODE,OFFICE_PRIVATE_0_Z3_AIRLOOP
   Return Air Path Node,Inlet Node,2,OFFICE_PRIVATE_0_Z3_RETURNAIR,OFFICE_PRIVATE_0_Z3_AIRLOOP
 Return Air Path,4,STORAGE_0_Z4_RETURNAIRPATH,STORAGE_0_Z4_AIRLOOP
   #Components on Return Air Path,1
   Return Air Path Component,1,AIRLOOPHVAC:ZONEMIXER,STORAGE_0_Z4_RETURNAIRMIXER,STORAGE_0_Z4_AIRLOOP
     #Inlet Nodes on Return Air Path Component,1
     Return Air Path Component Nodes,1,AIRLOOPHVAC:ZONEMIXER,STORAGE_0_Z4_RETURNAIRMIXER,STORAGE_0_Z4_RETURNAIR,STORAGE_0_Z4_ZONEEQUIPMENTOUTLETNODE,STORAGE_0_Z4_AIRLOOP
! <#Nodes on Return Air Path>,<Number of Nodes>
! <Return Air Path Node>,<Node Type>,<Node Count>,<Node Name>,<AirLoopHVAC Name>
   #Nodes on Return Air Path,2
   Return Air Path Node,Outlet Node,1,STORAGE_0_Z4_ZONEEQUIPMENTOUTLETNODE,STORAGE_0_Z4_AIRLOOP
   Return Air Path Node,Inlet Node,2,STORAGE_0_Z4_RETURNAIR,STORAGE_0_Z4_AIRLOOP
 Return Air Path,5,LOBBY_1_Z5_RETURNAIRPATH,LOBBY_1_Z5_AIRLOOP
   #Components on Return Air Path,1
   Return Air Path Component,1,AIRLOOPHVAC:ZONEMIXER,LOBBY_1_Z5_RETURNAIRMIXER,LOBBY_1_Z5_AIRLOOP
     #Inlet Nodes on Return Air Path Component,1
     Return Air Path Component Nodes,1,AIRLOOPHVAC:ZONEMIXER,LOBBY_1_Z5_RETURNAIRMIXER,LOBBY_1_Z5_RETURNAIR,LOBBY_1_Z5_ZONEEQUIPMENTOUTLETNODE,LOBBY_1_Z5_AIRLOOP
! <#Nodes on Return Air Path>,<Number of Nodes>
! <Return Air Path Node>,<Node Type>,<Node Count>,<Node Name>,<AirLoopHVAC Name>
   #Nodes on Return Air Path,2
   Return Air Path Node,Outlet Node,1,LOBBY_1_Z5_ZONEEQUIPMENTOUTLETNODE,LOBBY_1_Z5_AIRLOOP
   Return Air Path Node,Inlet Node,2,LOBBY_1_Z5_RETURNAIR,LOBBY_1_Z5_AIRLOOP
 Return Air Path,6,CONFERENCE_1_Z6_RETURNAIRPATH,CONFERENCE_1_Z6_AIRLOOP
   #Components on Return Air Path,1
   Return Air Path Component,1,AIRLOOPHVAC:ZONEMIXER,CONFERENCE_1_Z6_RETURNAIRMIXER,CONFERENCE_1_Z6_AIRLOOP
     #Inlet Nodes on Return Air Path Component,1
     Return Air Path Component Nodes,1,AIRLOOPHVAC:ZONEMIXER,CONFERENCE_1_Z6_RETURNAIRMIXER,CONFERENCE_1_Z6_RETURNAIR,CONFERENCE_1_Z6_ZONEEQUIPMENTOUTLETNODE,CONFERENCE_1_Z6_AIRLOOP
! <#Nodes on Return Air Path>,<Number of Nodes>
! <Return Air Path Node>,<Node Type>,<Node Count>,<Node Name>,<AirLoopHVAC Name>
   #Nodes on Return Air Path,2
   Return Air Path Node,Outlet Node,1,CONFERENCE_1_Z6_ZONEEQUIPMENTOUTLETNODE,CONFERENCE_1_Z6_AIRLOOP
   Return Air Path Node,Inlet Node,2,CONFERENCE_1_Z6_RETURNAIR,CONFERENCE_1_Z6_AIRLOOP
 Return Air Path,7,BREAK_ROOM_1_Z7_RETURNAIRPATH,BREAK_ROOM_1_Z7_AIRLOOP
   #Components on Return Air Path,1
   Return Air Path Component,1,AIRLOOPHVAC:ZONEMIXER,BREAK_ROOM_1_Z7_RETURNAIRMIXER,BREAK_ROOM_1_Z7_AIRLOOP
     #Inlet Nodes on Return Air Path Component,1
     Return Air Path Component Nodes,1,AIRLOOPHVAC:ZONEMIXER,BREAK_ROOM_1_Z7_RETURNAIRMIXER,BREAK_ROOM_1_Z7_RETURNAIR,BREAK_ROOM_1_Z7_ZONEEQUIPMENTOUTLETNODE,BREAK_ROOM_1_Z7_AIRLOOP
! <#Nodes on Return Air Path>,<Number of Nodes>
! <Return Air Path Node>,<Node Type>,<Node Count>,<Node Name>,<AirLoopHVAC Name>
   #Nodes on Return Air Path,2
   Return Air Path Node,Outlet Node,1,BREAK_ROOM_1_Z7_ZONEEQUIPMENTOUTLETNODE,BREAK_ROOM_1_Z7_AIRLOOP
   Return Air Path Node,Inlet Node,2,BREAK_ROOM_1_Z7_RETURNAIR,BREAK_ROOM_1_Z7_AIRLOOP
 Return Air Path,8,OFFICE_OPEN_1_Z8_RETURNAIRPATH,OFFICE_OPEN_1_Z8_AIRLOOP
   #Components on Return Air Path,1
   Return Air Path Component,1,AIRLOOPHVAC:ZONEMIXER,OFFICE_OPEN_1_Z8_RETURNAIRMIXER,OFFICE_OPEN_1_Z8_AIRLOOP
     #Inlet Nodes on Return Air Path Component,1
     Return Air Path Component Nodes,1,AIRLOOPHVAC:ZONEMIXER,OFFICE_OPEN_1_Z8_RETURNAIRMIXER,OFFICE_OPEN_1_Z8_RETURNAIR,OFFICE_OPEN_1_Z8_ZONEEQUIPMENTOUTLETNODE,OFFICE_OPEN_1_Z8_AIRLOOP
! <#Nodes on Return Air Path>,<Number of Nodes>
! <Return Air Path Node>,<Node Type>,<Node Count>,<Node Name>,<AirLoopHVAC Name>
   #Nodes on Return Air Path,2
   Return Air Path Node,Outlet Node,1,OFFICE_OPEN_1_Z8_ZONEEQUIPMENTOUTLETNODE,OFFICE_OPEN_1_Z8_AIRLOOP
   Return Air Path Node,Inlet Node,2,OFFICE_OPEN_1_Z8_RETURNAIR,OFFICE_OPEN_1_Z8_AIRLOOP
 Return Air Path,9,OFFICE_PRIVATE_1_Z9_RETURNAIRPATH,OFFICE_PRIVATE_1_Z9_AIRLOOP
   #Components on Return Air Path,1
   Return Air Path Component,1,AIRLOOPHVAC:ZONEMIXER,OFFICE_PRIVATE_1_Z9_RETURNAIRMIXER,OFFICE_PRIVATE_1_Z9_AIRLOOP
     #Inlet Nodes on Return Air Path Component,1
     Return Air Path Component Nodes,1,AIRLOOPHVAC:ZONEMIXER,OFFICE_PRIVATE_1_Z9_RETURNAIRMIXER,OFFICE_PRIVATE_1_Z9_RETURNAIR,OFFICE_PRIVATE_1_Z9_ZONEEQUIPMENTOUTLETNODE,OFFICE_PRIVATE_1_Z9_AIRLOOP
! <#Nodes on Return Air Path>,<Number of Nodes>
! <Return Air Path Node>,<Node Type>,<Node Count>,<Node Name>,<AirLoopHVAC Name>
   #Nodes on Return Air Path,2
   Return Air Path Node,Outlet Node,1,OFFICE_PRIVATE_1_Z9_ZONEEQUIPMENTOUTLETNODE,OFFICE_PRIVATE_1_Z9_AIRLOOP
   Return Air Path Node,Inlet Node,2,OFFICE_PRIVATE_1_Z9_RETURNAIR,OFFICE_PRIVATE_1_Z9_AIRLOOP
 Return Air Path,10,CONFERENCE_2_Z10_RETURNAIRPATH,CONFERENCE_2_Z10_AIRLOOP
   #Components on Return Air Path,1
   Return Air Path Component,1,AIRLOOPHVAC:ZONEMIXER,CONFERENCE_2_Z10_RETURNAIRMIXER,CONFERENCE_2_Z10_AIRLOOP
     #Inlet Nodes on Return Air Path Component,1
     Return Air Path Component Nodes,1,AIRLOOPHVAC:ZONEMIXER,CONFERENCE_2_Z10_RETURNAIRMIXER,CONFERENCE_2_Z10_RETURNAIR,CONFERENCE_2_Z10_ZONEEQUIPMENTOUTLETNODE,CONFERENCE_2_Z10_AIRLOOP
! <#Nodes on Return Air Path>,<Number of Nodes>
! <Return Air Path Node>,<Node Type>,<Node Count>,<Node Name>,<AirLoopHVAC Name>
   #Nodes on Return Air Path,2
   Return Air Path Node,Outlet Node,1,CONFERENCE_2_Z10_ZONEEQUIPMENTOUTLETNODE,CONFERENCE_2_Z10_AIRLOOP
   Return Air Path Node,Inlet Node,2,CONFERENCE_2_Z10_RETURNAIR,CONFERENCE_2_Z10_AIRLOOP
 Return Air Path,11,BREAK_ROOM_2_Z11_RETURNAIRPATH,BREAK_ROOM_2_Z11_AIRLOOP
   #Components on Return Air Path,1
   Return Air Path Component,1,AIRLOOPHVAC:ZONEMIXER,BREAK_ROOM_2_Z11_RETURNAIRMIXER,BREAK_ROOM_2_Z11_AIRLOOP
     #Inlet Nodes on Return Air Path Component,1
     Return Air Path Component Nodes,1,AIRLOOPHVAC:ZONEMIXER,BREAK_ROOM_2_Z11_RETURNAIRMIXER,BREAK_ROOM_2_Z11_RETURNAIR,BREAK_ROOM_2_Z11_ZONEEQUIPMENTOUTLETNODE,BREAK_ROOM_2_Z11_AIRLOOP
! <#Nodes on Return Air Path>,<Number of Nodes>
! <Return Air Path Node>,<Node Type>,<Node Count>,<Node Name>,<AirLoopHVAC Name>
   #Nodes on Return Air Path,2
   Return Air Path Node,Outlet Node,1,BREAK_ROOM_2_Z11_ZONEEQUIPMENTOUTLETNODE,BREAK_ROOM_2_Z11_AIRLOOP
   Return Air Path Node,Inlet Node,2,BREAK_ROOM_2_Z11_RETURNAIR,BREAK_ROOM_2_Z11_AIRLOOP
 Return Air Path,12,OFFICE_PRIVATE_2_Z12_RETURNAIRPATH,OFFICE_PRIVATE_2_Z12_AIRLOOP
   #Components on Return Air Path,1
   Return Air Path Component,1,AIRLOOPHVAC:ZONEMIXER,OFFICE_PRIVATE_2_Z12_RETURNAIRMIXER,OFFICE_PRIVATE_2_Z12_AIRLOOP
     #Inlet Nodes on Return Air Path Component,1
     Return Air Path Component Nodes,1,AIRLOOPHVAC:ZONEMIXER,OFFICE_PRIVATE_2_Z12_RETURNAIRMIXER,OFFICE_PRIVATE_2_Z12_RETURNAIR,OFFICE_PRIVATE_2_Z12_ZONEEQUIPMENTOUTLETNODE,OFFICE_PRIVATE_2_Z12_AIRLOOP
! <#Nodes on Return Air Path>,<Number of Nodes>
! <Return Air Path Node>,<Node Type>,<Node Count>,<Node Name>,<AirLoopHVAC Name>
   #Nodes on Return Air Path,2
   Return Air Path Node,Outlet Node,1,OFFICE_PRIVATE_2_Z12_ZONEEQUIPMENTOUTLETNODE,OFFICE_PRIVATE_2_Z12_AIRLOOP
   Return Air Path Node,Inlet Node,2,OFFICE_PRIVATE_2_Z12_RETURNAIR,OFFICE_PRIVATE_2_Z12_AIRLOOP
 Return Air Path,13,CONFERENCE_3_Z13_RETURNAIRPATH,CONFERENCE_3_Z13_AIRLOOP
   #Components on Return Air Path,1
   Return Air Path Component,1,AIRLOOPHVAC:ZONEMIXER,CONFERENCE_3_Z13_RETURNAIRMIXER,CONFERENCE_3_Z13_AIRLOOP
     #Inlet Nodes on Return Air Path Component,1
     Return Air Path Component Nodes,1,AIRLOOPHVAC:ZONEMIXER,CONFERENCE_3_Z13_RETURNAIRMIXER,CONFERENCE_3_Z13_RETURNAIR,CONFERENCE_3_Z13_ZONEEQUIPMENTOUTLETNODE,CONFERENCE_3_Z13_AIRLOOP
! <#Nodes on Return Air Path>,<Number of Nodes>
! <Return Air Path Node>,<Node Type>,<Node Count>,<Node Name>,<AirLoopHVAC Name>
   #Nodes on Return Air Path,2
   Return Air Path Node,Outlet Node,1,CONFERENCE_3_Z13_ZONEEQUIPMENTOUTLETNODE,CONFERENCE_3_Z13_AIRLOOP
   Return Air Path Node,Inlet Node,2,CONFERENCE_3_Z13_RETURNAIR,CONFERENCE_3_Z13_AIRLOOP
 Return Air Path,14,MECHANICAL_3_Z14_RETURNAIRPATH,MECHANICAL_3_Z14_AIRLOOP
   #Components on Return Air Path,1
   Return Air Path Component,1,AIRLOOPHVAC:ZONEMIXER,MECHANICAL_3_Z14_RETURNAIRMIXER,MECHANICAL_3_Z14_AIRLOOP
     #Inlet Nodes on Return Air Path Component,1
     Return Air Path Component Nodes,1,AIRLOOPHVAC:ZONEMIXER,MECHANICAL_3_Z14_RETURNAIRMIXER,MECHANICAL_3_Z14_RETURNAIR,MECHANICAL_3_Z14_ZONEEQUIPMENTOUTLETNODE,MECHANICAL_3_Z14_AIRLOOP
! <#Nodes on Return Air Path>,<Number of Nodes>
! <Return Air Path Node>,<Node Type>,<Node Count>,<Node Name>,<AirLoopHVAC Name>
   #Nodes on Return Air Path,2
   Return Air Path Node,Outlet Node,1,MECHANICAL_3_Z14_ZONEEQUIPMENTOUTLETNODE,MECHANICAL_3_Z14_AIRLOOP
   Return Air Path Node,Inlet Node,2,MECHANICAL_3_Z14_RETURNAIR,MECHANICAL_3_Z14_AIRLOOP
 Return Air Path,15,OFFICE_OPEN_3_Z15_RETURNAIRPATH,OFFICE_OPEN_3_Z15_AIRLOOP
   #Components on Return Air Path,1
   Return Air Path Component,1,AIRLOOPHVAC:ZONEMIXER,OFFICE_OPEN_3_Z15_RETURNAIRMIXER,OFFICE_OPEN_3_Z15_AIRLOOP
     #Inlet Nodes on Return Air Path Component,1
     Return Air Path Component Nodes,1,AIRLOOPHVAC:ZONEMIXER,OFFICE_OPEN_3_Z15_RETURNAIRMIXER,OFFICE_OPEN_3_Z15_RETURNAIR,OFFICE_OPEN_3_Z15_ZONEEQUIPMENTOUTLETNODE,OFFICE_OPEN_3_Z15_AIRLOOP
! <#Nodes on Return Air Path>,<Number of Nodes>
! <Return Air Path Node>,<Node Type>,<Node Count>,<Node Name>,<AirLoopHVAC Name>
   #Nodes on Return Air Path,2
   Return Air Path Node,Outlet Node,1,OFFICE_OPEN_3_Z15_ZONEEQUIPMENTOUTLETNODE,OFFICE_OPEN_3_Z15_AIRLOOP
   Return Air Path Node,Inlet Node,2,OFFICE_OPEN_3_Z15_RETURNAIR,OFFICE_OPEN_3_Z15_AIRLOOP
 Return Air Path,16,OFFICE_PRIVATE_3_Z16_RETURNAIRPATH,OFFICE_PRIVATE_3_Z16_AIRLOOP
   #Components on Return Air Path,1
   Return Air Path Component,1,AIRLOOPHVAC:ZONEMIXER,OFFICE_PRIVATE_3_Z16_RETURNAIRMIXER,OFFICE_PRIVATE_3_Z16_AIRLOOP
     #Inlet Nodes on Return Air Path Component,1
     Return Air Path Component Nodes,1,AIRLOOPHVAC:ZONEMIXER,OFFICE_PRIVATE_3_Z16_RETURNAIRMIXER,OFFICE_PRIVATE_3_Z16_RETURNAIR,OFFICE_PRIVATE_3_Z16_ZONEEQUIPMENTOUTLETNODE,OFFICE_PRIVATE_3_Z16_AIRLOOP
! <#Nodes on Return Air Path>,<Number of Nodes>
! <Return Air Path Node>,<Node Type>,<Node Count>,<Node Name>,<AirLoopHVAC Name>
   #Nodes on Return Air Path,2
   Return Air Path Node,Outlet Node,1,OFFICE_PRIVATE_3_Z16_ZONEEQUIPMENTOUTLETNODE,OFFICE_PRIVATE_3_Z16_AIRLOOP
   Return Air Path Node,Inlet Node,2,OFFICE_PRIVATE_3_Z16_RETURNAIR,OFFICE_PRIVATE_3_Z16_AIRLOOP
 Return Air Path,17,STORAGE_3_Z17_RETURNAIRPATH,STORAGE_3_Z17_AIRLOOP
   #Components on Return Air Path,1
   Return Air Path Component,1,AIRLOOPHVAC:ZONEMIXER,STORAGE_3_Z17_RETURNAIRMIXER,STORAGE_3_Z17_AIRLOOP
     #Inlet Nodes on Return Air Path Component,1
     Return Air Path Component Nodes,1,AIRLOOPHVAC:ZONEMIXER,STORAGE_3_Z17_RETURNAIRMIXER,STORAGE_3_Z17_RETURNAIR,STORAGE_3_Z17_ZONEEQUIPMENTOUTLETNODE,STORAGE_3_Z17_AIRLOOP
! <#Nodes on Return Air Path>,<Number of Nodes>
! <Return Air Path Node>,<Node Type>,<Node Count>,<Node Name>,<AirLoopHVAC Name>
   #Nodes on Return Air Path,2
   Return Air Path Node,Outlet Node,1,STORAGE_3_Z17_ZONEEQUIPMENTOUTLETNODE,STORAGE_3_Z17_AIRLOOP
   Return Air Path Node,Inlet Node,2,STORAGE_3_Z17_RETURNAIR,STORAGE_3_Z17_AIRLOOP
 Return Air Path,18,CONFERENCE_4_Z18_RETURNAIRPATH,CONFERENCE_4_Z18_AIRLOOP
   #Components on Return Air Path,1
   Return Air Path Component,1,AIRLOOPHVAC:ZONEMIXER,CONFERENCE_4_Z18_RETURNAIRMIXER,CONFERENCE_4_Z18_AIRLOOP
     #Inlet Nodes on Return Air Path Component,1
     Return Air Path Component Nodes,1,AIRLOOPHVAC:ZONEMIXER,CONFERENCE_4_Z18_RETURNAIRMIXER,CONFERENCE_4_Z18_RETURNAIR,CONFERENCE_4_Z18_ZONEEQUIPMENTOUTLETNODE,CONFERENCE_4_Z18_AIRLOOP
! <#Nodes on Return Air Path>,<Number of Nodes>
! <Return Air Path Node>,<Node Type>,<Node Count>,<Node Name>,<AirLoopHVAC Name>
   #Nodes on Return Air Path,2
   Return Air Path Node,Outlet Node,1,CONFERENCE_4_Z18_ZONEEQUIPMENTOUTLETNODE,CONFERENCE_4_Z18_AIRLOOP
   Return Air Path Node,Inlet Node,2,CONFERENCE_4_Z18_RETURNAIR,CONFERENCE_4_Z18_AIRLOOP
 Return Air Path,19,OFFICE_OPEN_4_Z19_RETURNAIRPATH,OFFICE_OPEN_4_Z19_AIRLOOP
   #Components on Return Air Path,1
   Return Air Path Component,1,AIRLOOPHVAC:ZONEMIXER,OFFICE_OPEN_4_Z19_RETURNAIRMIXER,OFFICE_OPEN_4_Z19_AIRLOOP
     #Inlet Nodes on Return Air Path Component,1
     Return Air Path Component Nodes,1,AIRLOOPHVAC:ZONEMIXER,OFFICE_OPEN_4_Z19_RETURNAIRMIXER,OFFICE_OPEN_4_Z19_RETURNAIR,OFFICE_OPEN_4_Z19_ZONEEQUIPMENTOUTLETNODE,OFFICE_OPEN_4_Z19_AIRLOOP
! <#Nodes on Return Air Path>,<Number of Nodes>
! <Return Air Path Node>,<Node Type>,<Node Count>,<Node Name>,<AirLoopHVAC Name>
   #Nodes on Return Air Path,2
   Return Air Path Node,Outlet Node,1,OFFICE_OPEN_4_Z19_ZONEEQUIPMENTOUTLETNODE,OFFICE_OPEN_4_Z19_AIRLOOP
   Return Air Path Node,Inlet Node,2,OFFICE_OPEN_4_Z19_RETURNAIR,OFFICE_OPEN_4_Z19_AIRLOOP
 Return Air Path,20,STORAGE_4_Z20_RETURNAIRPATH,STORAGE_4_Z20_AIRLOOP
   #Components on Return Air Path,1
   Return Air Path Component,1,AIRLOOPHVAC:ZONEMIXER,STORAGE_4_Z20_RETURNAIRMIXER,STORAGE_4_Z20_AIRLOOP
     #Inlet Nodes on Return Air Path Component,1
     Return Air Path Component Nodes,1,AIRLOOPHVAC:ZONEMIXER,STORAGE_4_Z20_RETURNAIRMIXER,STORAGE_4_Z20_RETURNAIR,STORAGE_4_Z20_ZONEEQUIPMENTOUTLETNODE,STORAGE_4_Z20_AIRLOOP
! <#Nodes on Return Air Path>,<Number of Nodes>
! <Return Air Path Node>,<Node Type>,<Node Count>,<Node Name>,<AirLoopHVAC Name>
   #Nodes on Return Air Path,2
   Return Air Path Node,Outlet Node,1,STORAGE_4_Z20_ZONEEQUIPMENTOUTLETNODE,STORAGE_4_Z20_AIRLOOP
   Return Air Path Node,Inlet Node,2,STORAGE_4_Z20_RETURNAIR,STORAGE_4_Z20_AIRLOOP
! ===============================================================
! #Outdoor Air Nodes,<Number of Outdoor Air Nodes>
 #Outdoor Air Nodes,0
! ===============================================================
! <#Component Sets>,<Number of Component Sets>
 #Component Sets,120
! <Component Set>,<Component Set Count>,<Parent Object Type>,<Parent Object Name>,<Component Type>,<Component Name>,<Inlet Node ID>,<Outlet Node ID>,<Description>
 Component Set,1,BRANCH,MECHANICAL_0_Z1_MAINBRANCH,COILSYSTEM:COOLING:DX,MECHANICAL_0_Z1_COOLINGCOIL,MECHANICAL_0_Z1_SUPPLYINLET,MECHANICAL_0_Z1_COOLC-HEATCNODE,Air Nodes
 Component Set,2,BRANCH,MECHANICAL_0_Z1_MAINBRANCH,COIL:HEATING:ELECTRIC,MECHANICAL_0_Z1_HEATINGCOIL,MECHANICAL_0_Z1_COOLC-HEATCNODE,MECHANICAL_0_Z1_HEATC-FANNODE,Air Nodes
 Component Set,3,BRANCH,MECHANICAL_0_Z1_MAINBRANCH,FAN:VARIABLEVOLUME,MECHANICAL_0_Z1_SUPPLYFAN,MECHANICAL_0_Z1_HEATC-FANNODE,MECHANICAL_0_Z1_SUPPLYEQUIPMENTOUTLETNODE,Air Nodes
 Component Set,4,BRANCH,OFFICE_OPEN_0_Z2_MAINBRANCH,COILSYSTEM:COOLING:DX,OFFICE_OPEN_0_Z2_COOLINGCOIL,OFFICE_OPEN_0_Z2_SUPPLYINLET,OFFICE_OPEN_0_Z2_COOLC-HEATCNODE,Air Nodes
 Component Set,5,BRANCH,OFFICE_OPEN_0_Z2_MAINBRANCH,COIL:HEATING:ELECTRIC,OFFICE_OPEN_0_Z2_HEATINGCOIL,OFFICE_OPEN_0_Z2_COOLC-HEATCNODE,OFFICE_OPEN_0_Z2_HEATC-FANNODE,Air Nodes
 Component Set,6,BRANCH,OFFICE_OPEN_0_Z2_MAINBRANCH,FAN:VARIABLEVOLUME,OFFICE_OPEN_0_Z2_SUPPLYFAN,OFFICE_OPEN_0_Z2_HEATC-FANNODE,OFFICE_OPEN_0_Z2_SUPPLYEQUIPMENTOUTLETNODE,Air Nodes
 Component Set,7,BRANCH,OFFICE_PRIVATE_0_Z3_MAINBRANCH,COILSYSTEM:COOLING:DX,OFFICE_PRIVATE_0_Z3_COOLINGCOIL,OFFICE_PRIVATE_0_Z3_SUPPLYINLET,OFFICE_PRIVATE_0_Z3_COOLC-HEATCNODE,Air Nodes
 Component Set,8,BRANCH,OFFICE_PRIVATE_0_Z3_MAINBRANCH,COIL:HEATING:ELECTRIC,OFFICE_PRIVATE_0_Z3_HEATINGCOIL,OFFICE_PRIVATE_0_Z3_COOLC-HEATCNODE,OFFICE_PRIVATE_0_Z3_HEATC-FANNODE,Air Nodes
 Component Set,9,BRANCH,OFFICE_PRIVATE_0_Z3_MAINBRANCH,FAN:VARIABLEVOLUME,OFFICE_PRIVATE_0_Z3_SUPPLYFAN,OFFICE_PRIVATE_0_Z3_HEATC-FANNODE,OFFICE_PRIVATE_0_Z3_SUPPLYEQUIPMENTOUTLETNODE,Air Nodes
 Component Set,10,BRANCH,STORAGE_0_Z4_MAINBRANCH,COILSYSTEM:COOLING:DX,STORAGE_0_Z4_COOLINGCOIL,STORAGE_0_Z4_SUPPLYINLET,STORAGE_0_Z4_COOLC-HEATCNODE,Air Nodes
 Component Set,11,BRANCH,STORAGE_0_Z4_MAINBRANCH,COIL:HEATING:ELECTRIC,STORAGE_0_Z4_HEATINGCOIL,STORAGE_0_Z4_COOLC-HEATCNODE,STORAGE_0_Z4_HEATC-FANNODE,Air Nodes
 Component Set,12,BRANCH,STORAGE_0_Z4_MAINBRANCH,FAN:VARIABLEVOLUME,STORAGE_0_Z4_SUPPLYFAN,STORAGE_0_Z4_HEATC-FANNODE,STORAGE_0_Z4_SUPPLYEQUIPMENTOUTLETNODE,Air Nodes
 Component Set,13,BRANCH,LOBBY_1_Z5_MAINBRANCH,COILSYSTEM:COOLING:DX,LOBBY_1_Z5_COOLINGCOIL,LOBBY_1_Z5_SUPPLYINLET,LOBBY_1_Z5_COOLC-HEATCNODE,Air Nodes
 Component Set,14,BRANCH,LOBBY_1_Z5_MAINBRANCH,COIL:HEATING:ELECTRIC,LOBBY_1_Z5_HEATINGCOIL,LOBBY_1_Z5_COOLC-HEATCNODE,LOBBY_1_Z5_HEATC-FANNODE,Air Nodes
 Component Set,15,BRANCH,LOBBY_1_Z5_MAINBRANCH,FAN:VARIABLEVOLUME,LOBBY_1_Z5_SUPPLYFAN,LOBBY_1_Z5_HEATC-FANNODE,LOBBY_1_Z5_SUPPLYEQUIPMENTOUTLETNODE,Air Nodes
 Component Set,16,BRANCH,CONFERENCE_1_Z6_MAINBRANCH,COILSYSTEM:COOLING:DX,CONFERENCE_1_Z6_COOLINGCOIL,CONFERENCE_1_Z6_SUPPLYINLET,CONFERENCE_1_Z6_COOLC-HEATCNODE,Air Nodes
 Component Set,17,BRANCH,CONFERENCE_1_Z6_MAINBRANCH,COIL:HEATING:ELECTRIC,CONFERENCE_1_Z6_HEATINGCOIL,CONFERENCE_1_Z6_COOLC-HEATCNODE,CONFERENCE_1_Z6_HEATC-FANNODE,Air Nodes
 Component Set,18,BRANCH,CONFERENCE_1_Z6_MAINBRANCH,FAN:VARIABLEVOLUME,CONFERENCE_1_Z6_SUPPLYFAN,CONFERENCE_1_Z6_HEATC-FANNODE,CONFERENCE_1_Z6_SUPPLYEQUIPMENTOUTLETNODE,Air Nodes
 Component Set,19,BRANCH,BREAK_ROOM_1_Z7_MAINBRANCH,COILSYSTEM:COOLING:DX,BREAK_ROOM_1_Z7_COOLINGCOIL,BREAK_ROOM_1_Z7_SUPPLYINLET,BREAK_ROOM_1_Z7_COOLC-HEATCNODE,Air Nodes
 Component Set,20,BRANCH,BREAK_ROOM_1_Z7_MAINBRANCH,COIL:HEATING:ELECTRIC,BREAK_ROOM_1_Z7_HEATINGCOIL,BREAK_ROOM_1_Z7_COOLC-HEATCNODE,BREAK_ROOM_1_Z7_HEATC-FANNODE,Air Nodes
 Component Set,21,BRANCH,BREAK_ROOM_1_Z7_MAINBRANCH,FAN:VARIABLEVOLUME,BREAK_ROOM_1_Z7_SUPPLYFAN,BREAK_ROOM_1_Z7_HEATC-FANNODE,BREAK_ROOM_1_Z7_SUPPLYEQUIPMENTOUTLETNODE,Air Nodes
 Component Set,22,BRANCH,OFFICE_OPEN_1_Z8_MAINBRANCH,COILSYSTEM:COOLING:DX,OFFICE_OPEN_1_Z8_COOLINGCOIL,OFFICE_OPEN_1_Z8_SUPPLYINLET,OFFICE_OPEN_1_Z8_COOLC-HEATCNODE,Air Nodes
 Component Set,23,BRANCH,OFFICE_OPEN_1_Z8_MAINBRANCH,COIL:HEATING:ELECTRIC,OFFICE_OPEN_1_Z8_HEATINGCOIL,OFFICE_OPEN_1_Z8_COOLC-HEATCNODE,OFFICE_OPEN_1_Z8_HEATC-FANNODE,Air Nodes
 Component Set,24,BRANCH,OFFICE_OPEN_1_Z8_MAINBRANCH,FAN:VARIABLEVOLUME,OFFICE_OPEN_1_Z8_SUPPLYFAN,OFFICE_OPEN_1_Z8_HEATC-FANNODE,OFFICE_OPEN_1_Z8_SUPPLYEQUIPMENTOUTLETNODE,Air Nodes
 Component Set,25,BRANCH,OFFICE_PRIVATE_1_Z9_MAINBRANCH,COILSYSTEM:COOLING:DX,OFFICE_PRIVATE_1_Z9_COOLINGCOIL,OFFICE_PRIVATE_1_Z9_SUPPLYINLET,OFFICE_PRIVATE_1_Z9_COOLC-HEATCNODE,Air Nodes
 Component Set,26,BRANCH,OFFICE_PRIVATE_1_Z9_MAINBRANCH,COIL:HEATING:ELECTRIC,OFFICE_PRIVATE_1_Z9_HEATINGCOIL,OFFICE_PRIVATE_1_Z9_COOLC-HEATCNODE,OFFICE_PRIVATE_1_Z9_HEATC-FANNODE,Air Nodes
 Component Set,27,BRANCH,OFFICE_PRIVATE_1_Z9_MAINBRANCH,FAN:VARIABLEVOLUME,OFFICE_PRIVATE_1_Z9_SUPPLYFAN,OFFICE_PRIVATE_1_Z9_HEATC-FANNODE,OFFICE_PRIVATE_1_Z9_SUPPLYEQUIPMENTOUTLETNODE,Air Nodes
 Component Set,28,BRANCH,CONFERENCE_2_Z10_MAINBRANCH,COILSYSTEM:COOLING:DX,CONFERENCE_2_Z10_COOLINGCOIL,CONFERENCE_2_Z10_SUPPLYINLET,CONFERENCE_2_Z10_COOLC-HEATCNODE,Air Nodes
 Component Set,29,BRANCH,CONFERENCE_2_Z10_MAINBRANCH,COIL:HEATING:ELECTRIC,CONFERENCE_2_Z10_HEATINGCOIL,CONFERENCE_2_Z10_COOLC-HEATCNODE,CONFERENCE_2_Z10_HEATC-FANNODE,Air Nodes
 Component Set,30,BRANCH,CONFERENCE_2_Z10_MAINBRANCH,FAN:VARIABLEVOLUME,CONFERENCE_2_Z10_SUPPLYFAN,CONFERENCE_2_Z10_HEATC-FANNODE,CONFERENCE_2_Z10_SUPPLYEQUIPMENTOUTLETNODE,Air Nodes
 Component Set,31,BRANCH,BREAK_ROOM_2_Z11_MAINBRANCH,COILSYSTEM:COOLING:DX,BREAK_ROOM_2_Z11_COOLINGCOIL,BREAK_ROOM_2_Z11_SUPPLYINLET,BREAK_ROOM_2_Z11_COOLC-HEATCNODE,Air Nodes
 Component Set,32,BRANCH,BREAK_ROOM_2_Z11_MAINBRANCH,COIL:HEATING:ELECTRIC,BREAK_ROOM_2_Z11_HEATINGCOIL,BREAK_ROOM_2_Z11_COOLC-HEATCNODE,BREAK_ROOM_2_Z11_HEATC-FANNODE,Air Nodes
 Component Set,33,BRANCH,BREAK_ROOM_2_Z11_MAINBRANCH,FAN:VARIABLEVOLUME,BREAK_ROOM_2_Z11_SUPPLYFAN,BREAK_ROOM_2_Z11_HEATC-FANNODE,BREAK_ROOM_2_Z11_SUPPLYEQUIPMENTOUTLETNODE,Air Nodes
 Component Set,34,BRANCH,OFFICE_PRIVATE_2_Z12_MAINBRANCH,COILSYSTEM:COOLING:DX,OFFICE_PRIVATE_2_Z12_COOLINGCOIL,OFFICE_PRIVATE_2_Z12_SUPPLYINLET,OFFICE_PRIVATE_2_Z12_COOLC-HEATCNODE,Air Nodes
 Component Set,35,BRANCH,OFFICE_PRIVATE_2_Z12_MAINBRANCH,COIL:HEATING:ELECTRIC,OFFICE_PRIVATE_2_Z12_HEATINGCOIL,OFFICE_PRIVATE_2_Z12_COOLC-HEATCNODE,OFFICE_PRIVATE_2_Z12_HEATC-FANNODE,Air Nodes
 Component Set,36,BRANCH,OFFICE_PRIVATE_2_Z12_MAINBRANCH,FAN:VARIABLEVOLUME,OFFICE_PRIVATE_2_Z12_SUPPLYFAN,OFFICE_PRIVATE_2_Z12_HEATC-FANNODE,OFFICE_PRIVATE_2_Z12_SUPPLYEQUIPMENTOUTLETNODE,Air Nodes
 Component Set,37,BRANCH,CONFERENCE_3_Z13_MAINBRANCH,COILSYSTEM:COOLING:DX,CONFERENCE_3_Z13_COOLINGCOIL,CONFERENCE_3_Z13_SUPPLYINLET,CONFERENCE_3_Z13_COOLC-HEATCNODE,Air Nodes
 Component Set,38,BRANCH,CONFERENCE_3_Z13_MAINBRANCH,COIL:HEATING:ELECTRIC,CONFERENCE_3_Z13_HEATINGCOIL,CONFERENCE_3_Z13_COOLC-HEATCNODE,CONFERENCE_3_Z13_HEATC-FANNODE,Air Nodes
 Component Set,39,BRANCH,CONFERENCE_3_Z13_MAINBRANCH,FAN:VARIABLEVOLUME,CONFERENCE_3_Z13_SUPPLYFAN,CONFERENCE_3_Z13_HEATC-FANNODE,CONFERENCE_3_Z13_SUPPLYEQUIPMENTOUTLETNODE,Air Nodes
 Component Set,40,BRANCH,MECHANICAL_3_Z14_MAINBRANCH,COILSYSTEM:COOLING:DX,MECHANICAL_3_Z14_COOLINGCOIL,MECHANICAL_3_Z14_SUPPLYINLET,MECHANICAL_3_Z14_COOLC-HEATCNODE,Air Nodes
 Component Set,41,BRANCH,MECHANICAL_3_Z14_MAINBRANCH,COIL:HEATING:ELECTRIC,MECHANICAL_3_Z14_HEATINGCOIL,MECHANICAL_3_Z14_COOLC-HEATCNODE,MECHANICAL_3_Z14_HEATC-FANNODE,Air Nodes
 Component Set,42,BRANCH,MECHANICAL_3_Z14_MAINBRANCH,FAN:VARIABLEVOLUME,MECHANICAL_3_Z14_SUPPLYFAN,MECHANICAL_3_Z14_HEATC-FANNODE,MECHANICAL_3_Z14_SUPPLYEQUIPMENTOUTLETNODE,Air Nodes
 Component Set,43,BRANCH,OFFICE_OPEN_3_Z15_MAINBRANCH,COILSYSTEM:COOLING:DX,OFFICE_OPEN_3_Z15_COOLINGCOIL,OFFICE_OPEN_3_Z15_SUPPLYINLET,OFFICE_OPEN_3_Z15_COOLC-HEATCNODE,Air Nodes
 Component Set,44,BRANCH,OFFICE_OPEN_3_Z15_MAINBRANCH,COIL:HEATING:ELECTRIC,OFFICE_OPEN_3_Z15_HEATINGCOIL,OFFICE_OPEN_3_Z15_COOLC-HEATCNODE,OFFICE_OPEN_3_Z15_HEATC-FANNODE,Air Nodes
 Component Set,45,BRANCH,OFFICE_OPEN_3_Z15_MAINBRANCH,FAN:VARIABLEVOLUME,OFFICE_OPEN_3_Z15_SUPPLYFAN,OFFICE_OPEN_3_Z15_HEATC-FANNODE,OFFICE_OPEN_3_Z15_SUPPLYEQUIPMENTOUTLETNODE,Air Nodes
 Component Set,46,BRANCH,OFFICE_PRIVATE_3_Z16_MAINBRANCH,COILSYSTEM:COOLING:DX,OFFICE_PRIVATE_3_Z16_COOLINGCOIL,OFFICE_PRIVATE_3_Z16_SUPPLYINLET,OFFICE_PRIVATE_3_Z16_COOLC-HEATCNODE,Air Nodes
 Component Set,47,BRANCH,OFFICE_PRIVATE_3_Z16_MAINBRANCH,COIL:HEATING:ELECTRIC,OFFICE_PRIVATE_3_Z16_HEATINGCOIL,OFFICE_PRIVATE_3_Z16_COOLC-HEATCNODE,OFFICE_PRIVATE_3_Z16_HEATC-FANNODE,Air Nodes
 Component Set,48,BRANCH,OFFICE_PRIVATE_3_Z16_MAINBRANCH,FAN:VARIABLEVOLUME,OFFICE_PRIVATE_3_Z16_SUPPLYFAN,OFFICE_PRIVATE_3_Z16_HEATC-FANNODE,OFFICE_PRIVATE_3_Z16_SUPPLYEQUIPMENTOUTLETNODE,Air Nodes
 Component Set,49,BRANCH,STORAGE_3_Z17_MAINBRANCH,COILSYSTEM:COOLING:DX,STORAGE_3_Z17_COOLINGCOIL,STORAGE_3_Z17_SUPPLYINLET,STORAGE_3_Z17_COOLC-HEATCNODE,Air Nodes
 Component Set,50,BRANCH,STORAGE_3_Z17_MAINBRANCH,COIL:HEATING:ELECTRIC,STORAGE_3_Z17_HEATINGCOIL,STORAGE_3_Z17_COOLC-HEATCNODE,STORAGE_3_Z17_HEATC-FANNODE,Air Nodes
 Component Set,51,BRANCH,STORAGE_3_Z17_MAINBRANCH,FAN:VARIABLEVOLUME,STORAGE_3_Z17_SUPPLYFAN,STORAGE_3_Z17_HEATC-FANNODE,STORAGE_3_Z17_SUPPLYEQUIPMENTOUTLETNODE,Air Nodes
 Component Set,52,BRANCH,CONFERENCE_4_Z18_MAINBRANCH,COILSYSTEM:COOLING:DX,CONFERENCE_4_Z18_COOLINGCOIL,CONFERENCE_4_Z18_SUPPLYINLET,CONFERENCE_4_Z18_COOLC-HEATCNODE,Air Nodes
 Component Set,53,BRANCH,CONFERENCE_4_Z18_MAINBRANCH,COIL:HEATING:ELECTRIC,CONFERENCE_4_Z18_HEATINGCOIL,CONFERENCE_4_Z18_COOLC-HEATCNODE,CONFERENCE_4_Z18_HEATC-FANNODE,Air Nodes
 Component Set,54,BRANCH,CONFERENCE_4_Z18_MAINBRANCH,FAN:VARIABLEVOLUME,CONFERENCE_4_Z18_SUPPLYFAN,CONFERENCE_4_Z18_HEATC-FANNODE,CONFERENCE_4_Z18_SUPPLYEQUIPMENTOUTLETNODE,Air Nodes
 Component Set,55,BRANCH,OFFICE_OPEN_4_Z19_MAINBRANCH,COILSYSTEM:COOLING:DX,OFFICE_OPEN_4_Z19_COOLINGCOIL,OFFICE_OPEN_4_Z19_SUPPLYINLET,OFFICE_OPEN_4_Z19_COOLC-HEATCNODE,Air Nodes
 Component Set,56,BRANCH,OFFICE_OPEN_4_Z19_MAINBRANCH,COIL:HEATING:ELECTRIC,OFFICE_OPEN_4_Z19_HEATINGCOIL,OFFICE_OPEN_4_Z19_COOLC-HEATCNODE,OFFICE_OPEN_4_Z19_HEATC-FANNODE,Air Nodes
 Component Set,57,BRANCH,OFFICE_OPEN_4_Z19_MAINBRANCH,FAN:VARIABLEVOLUME,OFFICE_OPEN_4_Z19_SUPPLYFAN,OFFICE_OPEN_4_Z19_HEATC-FANNODE,OFFICE_OPEN_4_Z19_SUPPLYEQUIPMENTOUTLETNODE,Air Nodes
 Component Set,58,BRANCH,STORAGE_4_Z20_MAINBRANCH,COILSYSTEM:COOLING:DX,STORAGE_4_Z20_COOLINGCOIL,STORAGE_4_Z20_SUPPLYINLET,STORAGE_4_Z20_COOLC-HEATCNODE,Air Nodes
 Component Set,59,BRANCH,STORAGE_4_Z20_MAINBRANCH,COIL:HEATING:ELECTRIC,STORAGE_4_Z20_HEATINGCOIL,STORAGE_4_Z20_COOLC-HEATCNODE,STORAGE_4_Z20_HEATC-FANNODE,Air Nodes
 Component Set,60,BRANCH,STORAGE_4_Z20_MAINBRANCH,FAN:VARIABLEVOLUME,STORAGE_4_Z20_SUPPLYFAN,STORAGE_4_Z20_HEATC-FANNODE,STORAGE_4_Z20_SUPPLYEQUIPMENTOUTLETNODE,Air Nodes
 Component Set,61,ZONEHVAC:AIRDISTRIBUTIONUNIT,MECHANICAL_0_Z1_ADU,AIRTERMINAL:SINGLEDUCT:VAV:REHEAT,MECHANICAL_0_Z1_VAVTERMINAL,MECHANICAL_0_Z1_TERMINALINLET,MECHANICAL_0_Z1_ADUOUTLET,Air Nodes
 Component Set,62,ZONEHVAC:AIRDISTRIBUTIONUNIT,OFFICE_OPEN_0_Z2_ADU,AIRTERMINAL:SINGLEDUCT:VAV:REHEAT,OFFICE_OPEN_0_Z2_VAVTERMINAL,OFFICE_OPEN_0_Z2_TERMINALINLET,OFFICE_OPEN_0_Z2_ADUOUTLET,Air Nodes
 Component Set,63,ZONEHVAC:AIRDISTRIBUTIONUNIT,OFFICE_PRIVATE_0_Z3_ADU,AIRTERMINAL:SINGLEDUCT:VAV:REHEAT,OFFICE_PRIVATE_0_Z3_VAVTERMINAL,OFFICE_PRIVATE_0_Z3_TERMINALINLET,OFFICE_PRIVATE_0_Z3_ADUOUTLET,Air Nodes
 Component Set,64,ZONEHVAC:AIRDISTRIBUTIONUNIT,STORAGE_0_Z4_ADU,AIRTERMINAL:SINGLEDUCT:VAV:REHEAT,STORAGE_0_Z4_VAVTERMINAL,STORAGE_0_Z4_TERMINALINLET,STORAGE_0_Z4_ADUOUTLET,Air Nodes
 Component Set,65,ZONEHVAC:AIRDISTRIBUTIONUNIT,LOBBY_1_Z5_ADU,AIRTERMINAL:SINGLEDUCT:VAV:REHEAT,LOBBY_1_Z5_VAVTERMINAL,LOBBY_1_Z5_TERMINALINLET,LOBBY_1_Z5_ADUOUTLET,Air Nodes
 Component Set,66,ZONEHVAC:AIRDISTRIBUTIONUNIT,CONFERENCE_1_Z6_ADU,AIRTERMINAL:SINGLEDUCT:VAV:REHEAT,CONFERENCE_1_Z6_VAVTERMINAL,CONFERENCE_1_Z6_TERMINALINLET,CONFERENCE_1_Z6_ADUOUTLET,Air Nodes
 Component Set,67,ZONEHVAC:AIRDISTRIBUTIONUNIT,BREAK_ROOM_1_Z7_ADU,AIRTERMINAL:SINGLEDUCT:VAV:REHEAT,BREAK_ROOM_1_Z7_VAVTERMINAL,BREAK_ROOM_1_Z7_TERMINALINLET,BREAK_ROOM_1_Z7_ADUOUTLET,Air Nodes
 Component Set,68,ZONEHVAC:AIRDISTRIBUTIONUNIT,OFFICE_OPEN_1_Z8_ADU,AIRTERMINAL:SINGLEDUCT:VAV:REHEAT,OFFICE_OPEN_1_Z8_VAVTERMINAL,OFFICE_OPEN_1_Z8_TERMINALINLET,OFFICE_OPEN_1_Z8_ADUOUTLET,Air Nodes
 Component Set,69,ZONEHVAC:AIRDISTRIBUTIONUNIT,OFFICE_PRIVATE_1_Z9_ADU,AIRTERMINAL:SINGLEDUCT:VAV:REHEAT,OFFICE_PRIVATE_1_Z9_VAVTERMINAL,OFFICE_PRIVATE_1_Z9_TERMINALINLET,OFFICE_PRIVATE_1_Z9_ADUOUTLET,Air Nodes
 Component Set,70,ZONEHVAC:AIRDISTRIBUTIONUNIT,CONFERENCE_2_Z10_ADU,AIRTERMINAL:SINGLEDUCT:VAV:REHEAT,CONFERENCE_2_Z10_VAVTERMINAL,CONFERENCE_2_Z10_TERMINALINLET,CONFERENCE_2_Z10_ADUOUTLET,Air Nodes
 Component Set,71,ZONEHVAC:AIRDISTRIBUTIONUNIT,BREAK_ROOM_2_Z11_ADU,AIRTERMINAL:SINGLEDUCT:VAV:REHEAT,BREAK_ROOM_2_Z11_VAVTERMINAL,BREAK_ROOM_2_Z11_TERMINALINLET,BREAK_ROOM_2_Z11_ADUOUTLET,Air Nodes
 Component Set,72,ZONEHVAC:AIRDISTRIBUTIONUNIT,OFFICE_PRIVATE_2_Z12_ADU,AIRTERMINAL:SINGLEDUCT:VAV:REHEAT,OFFICE_PRIVATE_2_Z12_VAVTERMINAL,OFFICE_PRIVATE_2_Z12_TERMINALINLET,OFFICE_PRIVATE_2_Z12_ADUOUTLET,Air Nodes
 Component Set,73,ZONEHVAC:AIRDISTRIBUTIONUNIT,CONFERENCE_3_Z13_ADU,AIRTERMINAL:SINGLEDUCT:VAV:REHEAT,CONFERENCE_3_Z13_VAVTERMINAL,CONFERENCE_3_Z13_TERMINALINLET,CONFERENCE_3_Z13_ADUOUTLET,Air Nodes
 Component Set,74,ZONEHVAC:AIRDISTRIBUTIONUNIT,MECHANICAL_3_Z14_ADU,AIRTERMINAL:SINGLEDUCT:VAV:REHEAT,MECHANICAL_3_Z14_VAVTERMINAL,MECHANICAL_3_Z14_TERMINALINLET,MECHANICAL_3_Z14_ADUOUTLET,Air Nodes
 Component Set,75,ZONEHVAC:AIRDISTRIBUTIONUNIT,OFFICE_OPEN_3_Z15_ADU,AIRTERMINAL:SINGLEDUCT:VAV:REHEAT,OFFICE_OPEN_3_Z15_VAVTERMINAL,OFFICE_OPEN_3_Z15_TERMINALINLET,OFFICE_OPEN_3_Z15_ADUOUTLET,Air Nodes
 Component Set,76,ZONEHVAC:AIRDISTRIBUTIONUNIT,OFFICE_PRIVATE_3_Z16_ADU,AIRTERMINAL:SINGLEDUCT:VAV:REHEAT,OFFICE_PRIVATE_3_Z16_VAVTERMINAL,OFFICE_PRIVATE_3_Z16_TERMINALINLET,OFFICE_PRIVATE_3_Z16_ADUOUTLET,Air Nodes
 Component Set,77,ZONEHVAC:AIRDISTRIBUTIONUNIT,STORAGE_3_Z17_ADU,AIRTERMINAL:SINGLEDUCT:VAV:REHEAT,STORAGE_3_Z17_VAVTERMINAL,STORAGE_3_Z17_TERMINALINLET,STORAGE_3_Z17_ADUOUTLET,Air Nodes
 Component Set,78,ZONEHVAC:AIRDISTRIBUTIONUNIT,CONFERENCE_4_Z18_ADU,AIRTERMINAL:SINGLEDUCT:VAV:REHEAT,CONFERENCE_4_Z18_VAVTERMINAL,CONFERENCE_4_Z18_TERMINALINLET,CONFERENCE_4_Z18_ADUOUTLET,Air Nodes
 Component Set,79,ZONEHVAC:AIRDISTRIBUTIONUNIT,OFFICE_OPEN_4_Z19_ADU,AIRTERMINAL:SINGLEDUCT:VAV:REHEAT,OFFICE_OPEN_4_Z19_VAVTERMINAL,OFFICE_OPEN_4_Z19_TERMINALINLET,OFFICE_OPEN_4_Z19_ADUOUTLET,Air Nodes
 Component Set,80,ZONEHVAC:AIRDISTRIBUTIONUNIT,STORAGE_4_Z20_ADU,AIRTERMINAL:SINGLEDUCT:VAV:REHEAT,STORAGE_4_Z20_VAVTERMINAL,STORAGE_4_Z20_TERMINALINLET,STORAGE_4_Z20_ADUOUTLET,Air Nodes
 Component Set,81,AIRTERMINAL:SINGLEDUCT:VAV:REHEAT,MECHANICAL_0_Z1_VAVTERMINAL,COIL:HEATING:ELECTRIC,MECHANICAL_0_Z1_REHEATCOIL,MECHANICAL_0_Z1_TERMINALOUTLET,MECHANICAL_0_Z1_ADUOUTLET,Air Nodes
 Component Set,82,AIRTERMINAL:SINGLEDUCT:VAV:REHEAT,OFFICE_OPEN_0_Z2_VAVTERMINAL,COIL:HEATING:ELECTRIC,OFFICE_OPEN_0_Z2_REHEATCOIL,OFFICE_OPEN_0_Z2_TERMINALOUTLET,OFFICE_OPEN_0_Z2_ADUOUTLET,Air Nodes
 Component Set,83,AIRTERMINAL:SINGLEDUCT:VAV:REHEAT,OFFICE_PRIVATE_0_Z3_VAVTERMINAL,COIL:HEATING:ELECTRIC,OFFICE_PRIVATE_0_Z3_REHEATCOIL,OFFICE_PRIVATE_0_Z3_TERMINALOUTLET,OFFICE_PRIVATE_0_Z3_ADUOUTLET,Air Nodes
 Component Set,84,AIRTERMINAL:SINGLEDUCT:VAV:REHEAT,STORAGE_0_Z4_VAVTERMINAL,COIL:HEATING:ELECTRIC,STORAGE_0_Z4_REHEATCOIL,STORAGE_0_Z4_TERMINALOUTLET,STORAGE_0_Z4_ADUOUTLET,Air Nodes
 Component Set,85,AIRTERMINAL:SINGLEDUCT:VAV:REHEAT,LOBBY_1_Z5_VAVTERMINAL,COIL:HEATING:ELECTRIC,LOBBY_1_Z5_REHEATCOIL,LOBBY_1_Z5_TERMINALOUTLET,LOBBY_1_Z5_ADUOUTLET,Air Nodes
 Component Set,86,AIRTERMINAL:SINGLEDUCT:VAV:REHEAT,CONFERENCE_1_Z6_VAVTERMINAL,COIL:HEATING:ELECTRIC,CONFERENCE_1_Z6_REHEATCOIL,CONFERENCE_1_Z6_TERMINALOUTLET,CONFERENCE_1_Z6_ADUOUTLET,Air Nodes
 Component Set,87,AIRTERMINAL:SINGLEDUCT:VAV:REHEAT,BREAK_ROOM_1_Z7_VAVTERMINAL,COIL:HEATING:ELECTRIC,BREAK_ROOM_1_Z7_REHEATCOIL,BREAK_ROOM_1_Z7_TERMINALOUTLET,BREAK_ROOM_1_Z7_ADUOUTLET,Air Nodes
 Component Set,88,AIRTERMINAL:SINGLEDUCT:VAV:REHEAT,OFFICE_OPEN_1_Z8_VAVTERMINAL,COIL:HEATING:ELECTRIC,OFFICE_OPEN_1_Z8_REHEATCOIL,OFFICE_OPEN_1_Z8_TERMINALOUTLET,OFFICE_OPEN_1_Z8_ADUOUTLET,Air Nodes
 Component Set,89,AIRTERMINAL:SINGLEDUCT:VAV:REHEAT,OFFICE_PRIVATE_1_Z9_VAVTERMINAL,COIL:HEATING:ELECTRIC,OFFICE_PRIVATE_1_Z9_REHEATCOIL,OFFICE_PRIVATE_1_Z9_TERMINALOUTLET,OFFICE_PRIVATE_1_Z9_ADUOUTLET,Air Nodes
 Component Set,90,AIRTERMINAL:SINGLEDUCT:VAV:REHEAT,CONFERENCE_2_Z10_VAVTERMINAL,COIL:HEATING:ELECTRIC,CONFERENCE_2_Z10_REHEATCOIL,CONFERENCE_2_Z10_TERMINALOUTLET,CONFERENCE_2_Z10_ADUOUTLET,Air Nodes
 Component Set,91,AIRTERMINAL:SINGLEDUCT:VAV:REHEAT,BREAK_ROOM_2_Z11_VAVTERMINAL,COIL:HEATING:ELECTRIC,BREAK_ROOM_2_Z11_REHEATCOIL,BREAK_ROOM_2_Z11_TERMINALOUTLET,BREAK_ROOM_2_Z11_ADUOUTLET,Air Nodes
 Component Set,92,AIRTERMINAL:SINGLEDUCT:VAV:REHEAT,OFFICE_PRIVATE_2_Z12_VAVTERMINAL,COIL:HEATING:ELECTRIC,OFFICE_PRIVATE_2_Z12_REHEATCOIL,OFFICE_PRIVATE_2_Z12_TERMINALOUTLET,OFFICE_PRIVATE_2_Z12_ADUOUTLET,Air Nodes
 Component Set,93,AIRTERMINAL:SINGLEDUCT:VAV:REHEAT,CONFERENCE_3_Z13_VAVTERMINAL,COIL:HEATING:ELECTRIC,CONFERENCE_3_Z13_REHEATCOIL,CONFERENCE_3_Z13_TERMINALOUTLET,CONFERENCE_3_Z13_ADUOUTLET,Air Nodes
 Component Set,94,AIRTERMINAL:SINGLEDUCT:VAV:REHEAT,MECHANICAL_3_Z14_VAVTERMINAL,COIL:HEATING:ELECTRIC,MECHANICAL_3_Z14_REHEATCOIL,MECHANICAL_3_Z14_TERMINALOUTLET,MECHANICAL_3_Z14_ADUOUTLET,Air Nodes
 Component Set,95,AIRTERMINAL:SINGLEDUCT:VAV:REHEAT,OFFICE_OPEN_3_Z15_VAVTERMINAL,COIL:HEATING:ELECTRIC,OFFICE_OPEN_3_Z15_REHEATCOIL,OFFICE_OPEN_3_Z15_TERMINALOUTLET,OFFICE_OPEN_3_Z15_ADUOUTLET,Air Nodes
 Component Set,96,AIRTERMINAL:SINGLEDUCT:VAV:REHEAT,OFFICE_PRIVATE_3_Z16_VAVTERMINAL,COIL:HEATING:ELECTRIC,OFFICE_PRIVATE_3_Z16_REHEATCOIL,OFFICE_PRIVATE_3_Z16_TERMINALOUTLET,OFFICE_PRIVATE_3_Z16_ADUOUTLET,Air Nodes
 Component Set,97,AIRTERMINAL:SINGLEDUCT:VAV:REHEAT,STORAGE_3_Z17_VAVTERMINAL,COIL:HEATING:ELECTRIC,STORAGE_3_Z17_REHEATCOIL,STORAGE_3_Z17_TERMINALOUTLET,STORAGE_3_Z17_ADUOUTLET,Air Nodes
 Component Set,98,AIRTERMINAL:SINGLEDUCT:VAV:REHEAT,CONFERENCE_4_Z18_VAVTERMINAL,COIL:HEATING:ELECTRIC,CONFERENCE_4_Z18_REHEATCOIL,CONFERENCE_4_Z18_TERMINALOUTLET,CONFERENCE_4_Z18_ADUOUTLET,Air Nodes
 Component Set,99,AIRTERMINAL:SINGLEDUCT:VAV:REHEAT,OFFICE_OPEN_4_Z19_VAVTERMINAL,COIL:HEATING:ELECTRIC,OFFICE_OPEN_4_Z19_REHEATCOIL,OFFICE_OPEN_4_Z19_TERMINALOUTLET,OFFICE_OPEN_4_Z19_ADUOUTLET,Air Nodes
 Component Set,100,AIRTERMINAL:SINGLEDUCT:VAV:REHEAT,STORAGE_4_Z20_VAVTERMINAL,COIL:HEATING:ELECTRIC,STORAGE_4_Z20_REHEATCOIL,STORAGE_4_Z20_TERMINALOUTLET,STORAGE_4_Z20_ADUOUTLET,Air Nodes
 Component Set,101,COILSYSTEM:COOLING:DX,MECHANICAL_0_Z1_COOLINGCOIL,COIL:COOLING:DX:SINGLESPEED,MECHANICAL_0_Z1_COOLINGCOILDX,MECHANICAL_0_Z1_SUPPLYINLET,MECHANICAL_0_Z1_COOLC-HEATCNODE,Air Nodes
 Component Set,102,COILSYSTEM:COOLING:DX,OFFICE_OPEN_0_Z2_COOLINGCOIL,COIL:COOLING:DX:SINGLESPEED,OFFICE_OPEN_0_Z2_COOLINGCOILDX,OFFICE_OPEN_0_Z2_SUPPLYINLET,OFFICE_OPEN_0_Z2_COOLC-HEATCNODE,Air Nodes
 Component Set,103,COILSYSTEM:COOLING:DX,OFFICE_PRIVATE_0_Z3_COOLINGCOIL,COIL:COOLING:DX:SINGLESPEED,OFFICE_PRIVATE_0_Z3_COOLINGCOILDX,OFFICE_PRIVATE_0_Z3_SUPPLYINLET,OFFICE_PRIVATE_0_Z3_COOLC-HEATCNODE,Air Nodes
 Component Set,104,COILSYSTEM:COOLING:DX,STORAGE_0_Z4_COOLINGCOIL,COIL:COOLING:DX:SINGLESPEED,STORAGE_0_Z4_COOLINGCOILDX,STORAGE_0_Z4_SUPPLYINLET,STORAGE_0_Z4_COOLC-HEATCNODE,Air Nodes
 Component Set,105,COILSYSTEM:COOLING:DX,LOBBY_1_Z5_COOLINGCOIL,COIL:COOLING:DX:SINGLESPEED,LOBBY_1_Z5_COOLINGCOILDX,LOBBY_1_Z5_SUPPLYINLET,LOBBY_1_Z5_COOLC-HEATCNODE,Air Nodes
 Component Set,106,COILSYSTEM:COOLING:DX,CONFERENCE_1_Z6_COOLINGCOIL,COIL:COOLING:DX:SINGLESPEED,CONFERENCE_1_Z6_COOLINGCOILDX,CONFERENCE_1_Z6_SUPPLYINLET,CONFERENCE_1_Z6_COOLC-HEATCNODE,Air Nodes
 Component Set,107,COILSYSTEM:COOLING:DX,BREAK_ROOM_1_Z7_COOLINGCOIL,COIL:COOLING:DX:SINGLESPEED,BREAK_ROOM_1_Z7_COOLINGCOILDX,BREAK_ROOM_1_Z7_SUPPLYINLET,BREAK_ROOM_1_Z7_COOLC-HEATCNODE,Air Nodes
 Component Set,108,COILSYSTEM:COOLING:DX,OFFICE_OPEN_1_Z8_COOLINGCOIL,COIL:COOLING:DX:SINGLESPEED,OFFICE_OPEN_1_Z8_COOLINGCOILDX,OFFICE_OPEN_1_Z8_SUPPLYINLET,OFFICE_OPEN_1_Z8_COOLC-HEATCNODE,Air Nodes
 Component Set,109,COILSYSTEM:COOLING:DX,OFFICE_PRIVATE_1_Z9_COOLINGCOIL,COIL:COOLING:DX:SINGLESPEED,OFFICE_PRIVATE_1_Z9_COOLINGCOILDX,OFFICE_PRIVATE_1_Z9_SUPPLYINLET,OFFICE_PRIVATE_1_Z9_COOLC-HEATCNODE,Air Nodes
 Component Set,110,COILSYSTEM:COOLING:DX,CONFERENCE_2_Z10_COOLINGCOIL,COIL:COOLING:DX:SINGLESPEED,CONFERENCE_2_Z10_COOLINGCOILDX,CONFERENCE_2_Z10_SUPPLYINLET,CONFERENCE_2_Z10_COOLC-HEATCNODE,Air Nodes
 Component Set,111,COILSYSTEM:COOLING:DX,BREAK_ROOM_2_Z11_COOLINGCOIL,COIL:COOLING:DX:SINGLESPEED,BREAK_ROOM_2_Z11_COOLINGCOILDX,BREAK_ROOM_2_Z11_SUPPLYINLET,BREAK_ROOM_2_Z11_COOLC-HEATCNODE,Air Nodes
 Component Set,112,COILSYSTEM:COOLING:DX,OFFICE_PRIVATE_2_Z12_COOLINGCOIL,COIL:COOLING:DX:SINGLESPEED,OFFICE_PRIVATE_2_Z12_COOLINGCOILDX,OFFICE_PRIVATE_2_Z12_SUPPLYINLET,OFFICE_PRIVATE_2_Z12_COOLC-HEATCNODE,Air Nodes
 Component Set,113,COILSYSTEM:COOLING:DX,CONFERENCE_3_Z13_COOLINGCOIL,COIL:COOLING:DX:SINGLESPEED,CONFERENCE_3_Z13_COOLINGCOILDX,CONFERENCE_3_Z13_SUPPLYINLET,CONFERENCE_3_Z13_COOLC-HEATCNODE,Air Nodes
 Component Set,114,COILSYSTEM:COOLING:DX,MECHANICAL_3_Z14_COOLINGCOIL,COIL:COOLING:DX:SINGLESPEED,MECHANICAL_3_Z14_COOLINGCOILDX,MECHANICAL_3_Z14_SUPPLYINLET,MECHANICAL_3_Z14_COOLC-HEATCNODE,Air Nodes
 Component Set,115,COILSYSTEM:COOLING:DX,OFFICE_OPEN_3_Z15_COOLINGCOIL,COIL:COOLING:DX:SINGLESPEED,OFFICE_OPEN_3_Z15_COOLINGCOILDX,OFFICE_OPEN_3_Z15_SUPPLYINLET,OFFICE_OPEN_3_Z15_COOLC-HEATCNODE,Air Nodes
 Component Set,116,COILSYSTEM:COOLING:DX,OFFICE_PRIVATE_3_Z16_COOLINGCOIL,COIL:COOLING:DX:SINGLESPEED,OFFICE_PRIVATE_3_Z16_COOLINGCOILDX,OFFICE_PRIVATE_3_Z16_SUPPLYINLET,OFFICE_PRIVATE_3_Z16_COOLC-HEATCNODE,Air Nodes
 Component Set,117,COILSYSTEM:COOLING:DX,STORAGE_3_Z17_COOLINGCOIL,COIL:COOLING:DX:SINGLESPEED,STORAGE_3_Z17_COOLINGCOILDX,STORAGE_3_Z17_SUPPLYINLET,STORAGE_3_Z17_COOLC-HEATCNODE,Air Nodes
 Component Set,118,COILSYSTEM:COOLING:DX,CONFERENCE_4_Z18_COOLINGCOIL,COIL:COOLING:DX:SINGLESPEED,CONFERENCE_4_Z18_COOLINGCOILDX,CONFERENCE_4_Z18_SUPPLYINLET,CONFERENCE_4_Z18_COOLC-HEATCNODE,Air Nodes
 Component Set,119,COILSYSTEM:COOLING:DX,OFFICE_OPEN_4_Z19_COOLINGCOIL,COIL:COOLING:DX:SINGLESPEED,OFFICE_OPEN_4_Z19_COOLINGCOILDX,OFFICE_OPEN_4_Z19_SUPPLYINLET,OFFICE_OPEN_4_Z19_COOLC-HEATCNODE,Air Nodes
 Component Set,120,COILSYSTEM:COOLING:DX,STORAGE_4_Z20_COOLINGCOIL,COIL:COOLING:DX:SINGLESPEED,STORAGE_4_Z20_COOLINGCOILDX,STORAGE_4_Z20_SUPPLYINLET,STORAGE_4_Z20_COOLC-HEATCNODE,Air Nodes
! ===============================================================
! <# Plant Loops>,<Number of Plant Loops>
 #Plant Loops,0
! <Plant Loop>,<Plant Loop Name>,<Loop Type>,<Inlet Node Name>,<Outlet Node Name>,<Branch List>,<Connector List>
! <Plant Loop Connector>,<Connector Type>,<Connector Name>,<Loop Name>,<Loop Type>,<Number of Inlets/Outlets>
! <Plant Loop Connector Branches>,<Connector Node Count>,<Connector Type>,<Connector Name>,<Inlet Branch>,<Outlet Branch>,<Loop Name>,<Loop Type>
! <Plant Loop Connector Nodes>,<Connector Node Count>,<Connector Type>,<Connector Name>,<Inlet Node>,<Outlet Node>,<Loop Name>,<Loop Type>
! <Plant Loop Supply Connection>,<Plant Loop Name>,<Supply Side Outlet Node Name>,<Demand Side Inlet Node Name>
! <Plant Loop Return Connection>,<Plant Loop Name>,<Demand Side Outlet Node Name>,<Supply Side Inlet Node Name>
! ===============================================================
! <# Condenser Loops>,<Number of Condenser Loops>
 #Condenser Loops,0
! <Condenser Loop>,<Condenser Loop Name>,<Loop Type>,<Inlet Node Name>,<Outlet Node Name>,<Branch List>,<Connector List>
! <Condenser Loop Connector>,<Connector Type>,<Connector Name>,<Loop Name>,<Loop Type>,<Number of Inlets/Outlets>
! <Condenser Loop Connector Branches>,<Connector Node Count>,<Connector Type>,<Connector Name>,<Inlet Branch>,<Outlet Branch>,<Loop Name>,<Loop Type>
! <Condenser Loop Connector Nodes>,<Connector Node Count>,<Connector Type>,<Connector Name>,<Inlet Node>,<Outlet Node>,<Loop Name>,<Loop Type>
! <Condenser Loop Supply Connection>,<Condenser Loop Name>,<Supply Side Outlet Node Name>,<Demand Side Inlet Node Name>
! <Condenser Loop Return Connection>,<Condenser Loop Name>,<Demand Side Outlet Node Name>,<Supply Side Inlet Node Name>
! ===============================================================
! <# Controlled Zones>,<Number of Controlled Zones>
 #Controlled Zones,20
! <Controlled Zone>,<Controlled Zone Name>,<Equip List Name>,<Control List Name>,<Zone Node Name>,<# Inlet Nodes>,<# Exhaust Nodes>,<# Return Nodes>
! <Controlled Zone Inlet>,<Inlet Node Count>,<Controlled Zone Name>,<Supply Air Inlet Node Name>,<SD Sys:Cooling/Heating [DD:Cooling] Inlet Node Name>,<DD Sys:Heating Inlet Node Name>
! <Controlled Zone Exhaust>,<Exhaust Node Count>,<Controlled Zone Name>,<Exhaust Air Node Name>
 Controlled Zone,MECHANICAL_0,MECHANICAL_0_Z1 EQUIPMENT,,MECHANICAL_0 AIR NODE,1,0,1
   Controlled Zone Inlet,1,MECHANICAL_0,MECHANICAL_0_Z1_ADUOUTLET,MECHANICAL_0_Z1_TERMINALINLET,N/A
   Controlled Zone Return,1,MECHANICAL_0,MECHANICAL_0_Z1_RETURNAIR
 Controlled Zone,OFFICE_OPEN_0,OFFICE_OPEN_0_Z2 EQUIPMENT,,OFFICE_OPEN_0 AIR NODE,1,0,1
   Controlled Zone Inlet,1,OFFICE_OPEN_0,OFFICE_OPEN_0_Z2_ADUOUTLET,OFFICE_OPEN_0_Z2_TERMINALINLET,N/A
   Controlled Zone Return,1,OFFICE_OPEN_0,OFFICE_OPEN_0_Z2_RETURNAIR
 Controlled Zone,OFFICE_PRIVATE_0,OFFICE_PRIVATE_0_Z3 EQUIPMENT,,OFFICE_PRIVATE_0 AIR NODE,1,0,1
   Controlled Zone Inlet,1,OFFICE_PRIVATE_0,OFFICE_PRIVATE_0_Z3_ADUOUTLET,OFFICE_PRIVATE_0_Z3_TERMINALINLET,N/A
   Controlled Zone Return,1,OFFICE_PRIVATE_0,OFFICE_PRIVATE_0_Z3_RETURNAIR
 Controlled Zone,STORAGE_0,STORAGE_0_Z4 EQUIPMENT,,STORAGE_0 AIR NODE,1,0,1
   Controlled Zone Inlet,1,STORAGE_0,STORAGE_0_Z4_ADUOUTLET,STORAGE_0_Z4_TERMINALINLET,N/A
   Controlled Zone Return,1,STORAGE_0,STORAGE_0_Z4_RETURNAIR
 Controlled Zone,LOBBY_1,LOBBY_1_Z5 EQUIPMENT,,LOBBY_1 AIR NODE,1,0,1
   Controlled Zone Inlet,1,LOBBY_1,LOBBY_1_Z5_ADUOUTLET,LOBBY_1_Z5_TERMINALINLET,N/A
   Controlled Zone Return,1,LOBBY_1,LOBBY_1_Z5_RETURNAIR
 Controlled Zone,CONFERENCE_1,CONFERENCE_1_Z6 EQUIPMENT,,CONFERENCE_1 AIR NODE,1,0,1
   Controlled Zone Inlet,1,CONFERENCE_1,CONFERENCE_1_Z6_ADUOUTLET,CONFERENCE_1_Z6_TERMINALINLET,N/A
   Controlled Zone Return,1,CONFERENCE_1,CONFERENCE_1_Z6_RETURNAIR
 Controlled Zone,BREAK_ROOM_1,BREAK_ROOM_1_Z7 EQUIPMENT,,BREAK_ROOM_1 AIR NODE,1,0,1
   Controlled Zone Inlet,1,BREAK_ROOM_1,BREAK_ROOM_1_Z7_ADUOUTLET,BREAK_ROOM_1_Z7_TERMINALINLET,N/A
   Controlled Zone Return,1,BREAK_ROOM_1,BREAK_ROOM_1_Z7_RETURNAIR
 Controlled Zone,OFFICE_OPEN_1,OFFICE_OPEN_1_Z8 EQUIPMENT,,OFFICE_OPEN_1 AIR NODE,1,0,1
   Controlled Zone Inlet,1,OFFICE_OPEN_1,OFFICE_OPEN_1_Z8_ADUOUTLET,OFFICE_OPEN_1_Z8_TERMINALINLET,N/A
   Controlled Zone Return,1,OFFICE_OPEN_1,OFFICE_OPEN_1_Z8_RETURNAIR
 Controlled Zone,OFFICE_PRIVATE_1,OFFICE_PRIVATE_1_Z9 EQUIPMENT,,OFFICE_PRIVATE_1 AIR NODE,1,0,1
   Controlled Zone Inlet,1,OFFICE_PRIVATE_1,OFFICE_PRIVATE_1_Z9_ADUOUTLET,OFFICE_PRIVATE_1_Z9_TERMINALINLET,N/A
   Controlled Zone Return,1,OFFICE_PRIVATE_1,OFFICE_PRIVATE_1_Z9_RETURNAIR
 Controlled Zone,CONFERENCE_2,CONFERENCE_2_Z10 EQUIPMENT,,CONFERENCE_2 AIR NODE,1,0,1
   Controlled Zone Inlet,1,CONFERENCE_2,CONFERENCE_2_Z10_ADUOUTLET,CONFERENCE_2_Z10_TERMINALINLET,N/A
   Controlled Zone Return,1,CONFERENCE_2,CONFERENCE_2_Z10_RETURNAIR
 Controlled Zone,BREAK_ROOM_2,BREAK_ROOM_2_Z11 EQUIPMENT,,BREAK_ROOM_2 AIR NODE,1,0,1
   Controlled Zone Inlet,1,BREAK_ROOM_2,BREAK_ROOM_2_Z11_ADUOUTLET,BREAK_ROOM_2_Z11_TERMINALINLET,N/A
   Controlled Zone Return,1,BREAK_ROOM_2,BREAK_ROOM_2_Z11_RETURNAIR
 Controlled Zone,OFFICE_PRIVATE_2,OFFICE_PRIVATE_2_Z12 EQUIPMENT,,OFFICE_PRIVATE_2 AIR NODE,1,0,1
   Controlled Zone Inlet,1,OFFICE_PRIVATE_2,OFFICE_PRIVATE_2_Z12_ADUOUTLET,OFFICE_PRIVATE_2_Z12_TERMINALINLET,N/A
   Controlled Zone Return,1,OFFICE_PRIVATE_2,OFFICE_PRIVATE_2_Z12_RETURNAIR
 Controlled Zone,CONFERENCE_3,CONFERENCE_3_Z13 EQUIPMENT,,CONFERENCE_3 AIR NODE,1,0,1
   Controlled Zone Inlet,1,CONFERENCE_3,CONFERENCE_3_Z13_ADUOUTLET,CONFERENCE_3_Z13_TERMINALINLET,N/A
   Controlled Zone Return,1,CONFERENCE_3,CONFERENCE_3_Z13_RETURNAIR
 Controlled Zone,MECHANICAL_3,MECHANICAL_3_Z14 EQUIPMENT,,MECHANICAL_3 AIR NODE,1,0,1
   Controlled Zone Inlet,1,MECHANICAL_3,MECHANICAL_3_Z14_ADUOUTLET,MECHANICAL_3_Z14_TERMINALINLET,N/A
   Controlled Zone Return,1,MECHANICAL_3,MECHANICAL_3_Z14_RETURNAIR
 Controlled Zone,OFFICE_OPEN_3,OFFICE_OPEN_3_Z15 EQUIPMENT,,OFFICE_OPEN_3 AIR NODE,1,0,1
   Controlled Zone Inlet,1,OFFICE_OPEN_3,OFFICE_OPEN_3_Z15_ADUOUTLET,OFFICE_OPEN_3_Z15_TERMINALINLET,N/A
   Controlled Zone Return,1,OFFICE_OPEN_3,OFFICE_OPEN_3_Z15_RETURNAIR
 Controlled Zone,OFFICE_PRIVATE_3,OFFICE_PRIVATE_3_Z16 EQUIPMENT,,OFFICE_PRIVATE_3 AIR NODE,1,0,1
   Controlled Zone Inlet,1,OFFICE_PRIVATE_3,OFFICE_PRIVATE_3_Z16_ADUOUTLET,OFFICE_PRIVATE_3_Z16_TERMINALINLET,N/A
   Controlled Zone Return,1,OFFICE_PRIVATE_3,OFFICE_PRIVATE_3_Z16_RETURNAIR
 Controlled Zone,STORAGE_3,STORAGE_3_Z17 EQUIPMENT,,STORAGE_3 AIR NODE,1,0,1
   Controlled Zone Inlet,1,STORAGE_3,STORAGE_3_Z17_ADUOUTLET,STORAGE_3_Z17_TERMINALINLET,N/A
[...]
 Non-Parent Node Connection,OFFICE_PRIVATE_2_Z12_HEATC-FANNODE,COIL:HEATING:ELECTRIC,OFFICE_PRIVATE_2_Z12_HEATINGCOIL,Sensor,1
 Non-Parent Node Connection,OFFICE_PRIVATE_2_Z12_TERMINALOUTLET,COIL:HEATING:ELECTRIC,OFFICE_PRIVATE_2_Z12_REHEATCOIL,Inlet,1
 Non-Parent Node Connection,OFFICE_PRIVATE_2_Z12_ADUOUTLET,COIL:HEATING:ELECTRIC,OFFICE_PRIVATE_2_Z12_REHEATCOIL,Outlet,1
 Non-Parent Node Connection,CONFERENCE_3_Z13_COOLC-HEATCNODE,COIL:HEATING:ELECTRIC,CONFERENCE_3_Z13_HEATINGCOIL,Inlet,1
 Non-Parent Node Connection,CONFERENCE_3_Z13_HEATC-FANNODE,COIL:HEATING:ELECTRIC,CONFERENCE_3_Z13_HEATINGCOIL,Outlet,1
 Non-Parent Node Connection,CONFERENCE_3_Z13_HEATC-FANNODE,COIL:HEATING:ELECTRIC,CONFERENCE_3_Z13_HEATINGCOIL,Sensor,1
 Non-Parent Node Connection,CONFERENCE_3_Z13_TERMINALOUTLET,COIL:HEATING:ELECTRIC,CONFERENCE_3_Z13_REHEATCOIL,Inlet,1
 Non-Parent Node Connection,CONFERENCE_3_Z13_ADUOUTLET,COIL:HEATING:ELECTRIC,CONFERENCE_3_Z13_REHEATCOIL,Outlet,1
 Non-Parent Node Connection,MECHANICAL_3_Z14_COOLC-HEATCNODE,COIL:HEATING:ELECTRIC,MECHANICAL_3_Z14_HEATINGCOIL,Inlet,1
 Non-Parent Node Connection,MECHANICAL_3_Z14_HEATC-FANNODE,COIL:HEATING:ELECTRIC,MECHANICAL_3_Z14_HEATINGCOIL,Outlet,1
 Non-Parent Node Connection,MECHANICAL_3_Z14_HEATC-FANNODE,COIL:HEATING:ELECTRIC,MECHANICAL_3_Z14_HEATINGCOIL,Sensor,1
 Non-Parent Node Connection,MECHANICAL_3_Z14_TERMINALOUTLET,COIL:HEATING:ELECTRIC,MECHANICAL_3_Z14_REHEATCOIL,Inlet,1
 Non-Parent Node Connection,MECHANICAL_3_Z14_ADUOUTLET,COIL:HEATING:ELECTRIC,MECHANICAL_3_Z14_REHEATCOIL,Outlet,1
 Non-Parent Node Connection,OFFICE_OPEN_3_Z15_COOLC-HEATCNODE,COIL:HEATING:ELECTRIC,OFFICE_OPEN_3_Z15_HEATINGCOIL,Inlet,1
 Non-Parent Node Connection,OFFICE_OPEN_3_Z15_HEATC-FANNODE,COIL:HEATING:ELECTRIC,OFFICE_OPEN_3_Z15_HEATINGCOIL,Outlet,1
 Non-Parent Node Connection,OFFICE_OPEN_3_Z15_HEATC-FANNODE,COIL:HEATING:ELECTRIC,OFFICE_OPEN_3_Z15_HEATINGCOIL,Sensor,1
 Non-Parent Node Connection,OFFICE_OPEN_3_Z15_TERMINALOUTLET,COIL:HEATING:ELECTRIC,OFFICE_OPEN_3_Z15_REHEATCOIL,Inlet,1
 Non-Parent Node Connection,OFFICE_OPEN_3_Z15_ADUOUTLET,COIL:HEATING:ELECTRIC,OFFICE_OPEN_3_Z15_REHEATCOIL,Outlet,1
 Non-Parent Node Connection,OFFICE_PRIVATE_3_Z16_COOLC-HEATCNODE,COIL:HEATING:ELECTRIC,OFFICE_PRIVATE_3_Z16_HEATINGCOIL,Inlet,1
 Non-Parent Node Connection,OFFICE_PRIVATE_3_Z16_HEATC-FANNODE,COIL:HEATING:ELECTRIC,OFFICE_PRIVATE_3_Z16_HEATINGCOIL,Outlet,1
 Non-Parent Node Connection,OFFICE_PRIVATE_3_Z16_HEATC-FANNODE,COIL:HEATING:ELECTRIC,OFFICE_PRIVATE_3_Z16_HEATINGCOIL,Sensor,1
 Non-Parent Node Connection,OFFICE_PRIVATE_3_Z16_TERMINALOUTLET,COIL:HEATING:ELECTRIC,OFFICE_PRIVATE_3_Z16_REHEATCOIL,Inlet,1
 Non-Parent Node Connection,OFFICE_PRIVATE_3_Z16_ADUOUTLET,COIL:HEATING:ELECTRIC,OFFICE_PRIVATE_3_Z16_REHEATCOIL,Outlet,1
 Non-Parent Node Connection,STORAGE_3_Z17_COOLC-HEATCNODE,COIL:HEATING:ELECTRIC,STORAGE_3_Z17_HEATINGCOIL,Inlet,1
 Non-Parent Node Connection,STORAGE_3_Z17_HEATC-FANNODE,COIL:HEATING:ELECTRIC,STORAGE_3_Z17_HEATINGCOIL,Outlet,1
 Non-Parent Node Connection,STORAGE_3_Z17_HEATC-FANNODE,COIL:HEATING:ELECTRIC,STORAGE_3_Z17_HEATINGCOIL,Sensor,1
 Non-Parent Node Connection,STORAGE_3_Z17_TERMINALOUTLET,COIL:HEATING:ELECTRIC,STORAGE_3_Z17_REHEATCOIL,Inlet,1
 Non-Parent Node Connection,STORAGE_3_Z17_ADUOUTLET,COIL:HEATING:ELECTRIC,STORAGE_3_Z17_REHEATCOIL,Outlet,1
 Non-Parent Node Connection,CONFERENCE_4_Z18_COOLC-HEATCNODE,COIL:HEATING:ELECTRIC,CONFERENCE_4_Z18_HEATINGCOIL,Inlet,1
 Non-Parent Node Connection,CONFERENCE_4_Z18_HEATC-FANNODE,COIL:HEATING:ELECTRIC,CONFERENCE_4_Z18_HEATINGCOIL,Outlet,1
 Non-Parent Node Connection,CONFERENCE_4_Z18_HEATC-FANNODE,COIL:HEATING:ELECTRIC,CONFERENCE_4_Z18_HEATINGCOIL,Sensor,1
 Non-Parent Node Connection,CONFERENCE_4_Z18_TERMINALOUTLET,COIL:HEATING:ELECTRIC,CONFERENCE_4_Z18_REHEATCOIL,Inlet,1
 Non-Parent Node Connection,CONFERENCE_4_Z18_ADUOUTLET,COIL:HEATING:ELECTRIC,CONFERENCE_4_Z18_REHEATCOIL,Outlet,1
 Non-Parent Node Connection,OFFICE_OPEN_4_Z19_COOLC-HEATCNODE,COIL:HEATING:ELECTRIC,OFFICE_OPEN_4_Z19_HEATINGCOIL,Inlet,1
 Non-Parent Node Connection,OFFICE_OPEN_4_Z19_HEATC-FANNODE,COIL:HEATING:ELECTRIC,OFFICE_OPEN_4_Z19_HEATINGCOIL,Outlet,1
 Non-Parent Node Connection,OFFICE_OPEN_4_Z19_HEATC-FANNODE,COIL:HEATING:ELECTRIC,OFFICE_OPEN_4_Z19_HEATINGCOIL,Sensor,1
 Non-Parent Node Connection,OFFICE_OPEN_4_Z19_TERMINALOUTLET,COIL:HEATING:ELECTRIC,OFFICE_OPEN_4_Z19_REHEATCOIL,Inlet,1
 Non-Parent Node Connection,OFFICE_OPEN_4_Z19_ADUOUTLET,COIL:HEATING:ELECTRIC,OFFICE_OPEN_4_Z19_REHEATCOIL,Outlet,1
 Non-Parent Node Connection,STORAGE_4_Z20_COOLC-HEATCNODE,COIL:HEATING:ELECTRIC,STORAGE_4_Z20_HEATINGCOIL,Inlet,1
 Non-Parent Node Connection,STORAGE_4_Z20_HEATC-FANNODE,COIL:HEATING:ELECTRIC,STORAGE_4_Z20_HEATINGCOIL,Outlet,1
 Non-Parent Node Connection,STORAGE_4_Z20_HEATC-FANNODE,COIL:HEATING:ELECTRIC,STORAGE_4_Z20_HEATINGCOIL,Sensor,1
 Non-Parent Node Connection,STORAGE_4_Z20_TERMINALOUTLET,COIL:HEATING:ELECTRIC,STORAGE_4_Z20_REHEATCOIL,Inlet,1
 Non-Parent Node Connection,STORAGE_4_Z20_ADUOUTLET,COIL:HEATING:ELECTRIC,STORAGE_4_Z20_REHEATCOIL,Outlet,1
 Non-Parent Node Connection,MECHANICAL_0_Z1_ZONEEQUIPMENTOUTLETNODE,AIRLOOPHVAC:ZONEMIXER,MECHANICAL_0_Z1_RETURNAIRMIXER,Outlet,1
 Non-Parent Node Connection,MECHANICAL_0_Z1_RETURNAIR,AIRLOOPHVAC:ZONEMIXER,MECHANICAL_0_Z1_RETURNAIRMIXER,Inlet,1
 Non-Parent Node Connection,OFFICE_OPEN_0_Z2_ZONEEQUIPMENTOUTLETNODE,AIRLOOPHVAC:ZONEMIXER,OFFICE_OPEN_0_Z2_RETURNAIRMIXER,Outlet,1
 Non-Parent Node Connection,OFFICE_OPEN_0_Z2_RETURNAIR,AIRLOOPHVAC:ZONEMIXER,OFFICE_OPEN_0_Z2_RETURNAIRMIXER,Inlet,1
 Non-Parent Node Connection,OFFICE_PRIVATE_0_Z3_ZONEEQUIPMENTOUTLETNODE,AIRLOOPHVAC:ZONEMIXER,OFFICE_PRIVATE_0_Z3_RETURNAIRMIXER,Outlet,1
 Non-Parent Node Connection,OFFICE_PRIVATE_0_Z3_RETURNAIR,AIRLOOPHVAC:ZONEMIXER,OFFICE_PRIVATE_0_Z3_RETURNAIRMIXER,Inlet,1
 Non-Parent Node Connection,STORAGE_0_Z4_ZONEEQUIPMENTOUTLETNODE,AIRLOOPHVAC:ZONEMIXER,STORAGE_0_Z4_RETURNAIRMIXER,Outlet,1
 Non-Parent Node Connection,STORAGE_0_Z4_RETURNAIR,AIRLOOPHVAC:ZONEMIXER,STORAGE_0_Z4_RETURNAIRMIXER,Inlet,1
 Non-Parent Node Connection,LOBBY_1_Z5_ZONEEQUIPMENTOUTLETNODE,AIRLOOPHVAC:ZONEMIXER,LOBBY_1_Z5_RETURNAIRMIXER,Outlet,1
 Non-Parent Node Connection,LOBBY_1_Z5_RETURNAIR,AIRLOOPHVAC:ZONEMIXER,LOBBY_1_Z5_RETURNAIRMIXER,Inlet,1
 Non-Parent Node Connection,CONFERENCE_1_Z6_ZONEEQUIPMENTOUTLETNODE,AIRLOOPHVAC:ZONEMIXER,CONFERENCE_1_Z6_RETURNAIRMIXER,Outlet,1
 Non-Parent Node Connection,CONFERENCE_1_Z6_RETURNAIR,AIRLOOPHVAC:ZONEMIXER,CONFERENCE_1_Z6_RETURNAIRMIXER,Inlet,1
 Non-Parent Node Connection,BREAK_ROOM_1_Z7_ZONEEQUIPMENTOUTLETNODE,AIRLOOPHVAC:ZONEMIXER,BREAK_ROOM_1_Z7_RETURNAIRMIXER,Outlet,1
 Non-Parent Node Connection,BREAK_ROOM_1_Z7_RETURNAIR,AIRLOOPHVAC:ZONEMIXER,BREAK_ROOM_1_Z7_RETURNAIRMIXER,Inlet,1
 Non-Parent Node Connection,OFFICE_OPEN_1_Z8_ZONEEQUIPMENTOUTLETNODE,AIRLOOPHVAC:ZONEMIXER,OFFICE_OPEN_1_Z8_RETURNAIRMIXER,Outlet,1
 Non-Parent Node Connection,OFFICE_OPEN_1_Z8_RETURNAIR,AIRLOOPHVAC:ZONEMIXER,OFFICE_OPEN_1_Z8_RETURNAIRMIXER,Inlet,1
 Non-Parent Node Connection,OFFICE_PRIVATE_1_Z9_ZONEEQUIPMENTOUTLETNODE,AIRLOOPHVAC:ZONEMIXER,OFFICE_PRIVATE_1_Z9_RETURNAIRMIXER,Outlet,1
 Non-Parent Node Connection,OFFICE_PRIVATE_1_Z9_RETURNAIR,AIRLOOPHVAC:ZONEMIXER,OFFICE_PRIVATE_1_Z9_RETURNAIRMIXER,Inlet,1
 Non-Parent Node Connection,CONFERENCE_2_Z10_ZONEEQUIPMENTOUTLETNODE,AIRLOOPHVAC:ZONEMIXER,CONFERENCE_2_Z10_RETURNAIRMIXER,Outlet,1
 Non-Parent Node Connection,CONFERENCE_2_Z10_RETURNAIR,AIRLOOPHVAC:ZONEMIXER,CONFERENCE_2_Z10_RETURNAIRMIXER,Inlet,1
 Non-Parent Node Connection,BREAK_ROOM_2_Z11_ZONEEQUIPMENTOUTLETNODE,AIRLOOPHVAC:ZONEMIXER,BREAK_ROOM_2_Z11_RETURNAIRMIXER,Outlet,1
 Non-Parent Node Connection,BREAK_ROOM_2_Z11_RETURNAIR,AIRLOOPHVAC:ZONEMIXER,BREAK_ROOM_2_Z11_RETURNAIRMIXER,Inlet,1
 Non-Parent Node Connection,OFFICE_PRIVATE_2_Z12_ZONEEQUIPMENTOUTLETNODE,AIRLOOPHVAC:ZONEMIXER,OFFICE_PRIVATE_2_Z12_RETURNAIRMIXER,Outlet,1
 Non-Parent Node Connection,OFFICE_PRIVATE_2_Z12_RETURNAIR,AIRLOOPHVAC:ZONEMIXER,OFFICE_PRIVATE_2_Z12_RETURNAIRMIXER,Inlet,1
 Non-Parent Node Connection,CONFERENCE_3_Z13_ZONEEQUIPMENTOUTLETNODE,AIRLOOPHVAC:ZONEMIXER,CONFERENCE_3_Z13_RETURNAIRMIXER,Outlet,1
 Non-Parent Node Connection,CONFERENCE_3_Z13_RETURNAIR,AIRLOOPHVAC:ZONEMIXER,CONFERENCE_3_Z13_RETURNAIRMIXER,Inlet,1
 Non-Parent Node Connection,MECHANICAL_3_Z14_ZONEEQUIPMENTOUTLETNODE,AIRLOOPHVAC:ZONEMIXER,MECHANICAL_3_Z14_RETURNAIRMIXER,Outlet,1
 Non-Parent Node Connection,MECHANICAL_3_Z14_RETURNAIR,AIRLOOPHVAC:ZONEMIXER,MECHANICAL_3_Z14_RETURNAIRMIXER,Inlet,1
 Non-Parent Node Connection,OFFICE_OPEN_3_Z15_ZONEEQUIPMENTOUTLETNODE,AIRLOOPHVAC:ZONEMIXER,OFFICE_OPEN_3_Z15_RETURNAIRMIXER,Outlet,1
 Non-Parent Node Connection,OFFICE_OPEN_3_Z15_RETURNAIR,AIRLOOPHVAC:ZONEMIXER,OFFICE_OPEN_3_Z15_RETURNAIRMIXER,Inlet,1
 Non-Parent Node Connection,OFFICE_PRIVATE_3_Z16_ZONEEQUIPMENTOUTLETNODE,AIRLOOPHVAC:ZONEMIXER,OFFICE_PRIVATE_3_Z16_RETURNAIRMIXER,Outlet,1
 Non-Parent Node Connection,OFFICE_PRIVATE_3_Z16_RETURNAIR,AIRLOOPHVAC:ZONEMIXER,OFFICE_PRIVATE_3_Z16_RETURNAIRMIXER,Inlet,1
 Non-Parent Node Connection,STORAGE_3_Z17_ZONEEQUIPMENTOUTLETNODE,AIRLOOPHVAC:ZONEMIXER,STORAGE_3_Z17_RETURNAIRMIXER,Outlet,1
 Non-Parent Node Connection,STORAGE_3_Z17_RETURNAIR,AIRLOOPHVAC:ZONEMIXER,STORAGE_3_Z17_RETURNAIRMIXER,Inlet,1
 Non-Parent Node Connection,CONFERENCE_4_Z18_ZONEEQUIPMENTOUTLETNODE,AIRLOOPHVAC:ZONEMIXER,CONFERENCE_4_Z18_RETURNAIRMIXER,Outlet,1
 Non-Parent Node Connection,CONFERENCE_4_Z18_RETURNAIR,AIRLOOPHVAC:ZONEMIXER,CONFERENCE_4_Z18_RETURNAIRMIXER,Inlet,1
 Non-Parent Node Connection,OFFICE_OPEN_4_Z19_ZONEEQUIPMENTOUTLETNODE,AIRLOOPHVAC:ZONEMIXER,OFFICE_OPEN_4_Z19_RETURNAIRMIXER,Outlet,1
 Non-Parent Node Connection,OFFICE_OPEN_4_Z19_RETURNAIR,AIRLOOPHVAC:ZONEMIXER,OFFICE_OPEN_4_Z19_RETURNAIRMIXER,Inlet,1
 Non-Parent Node Connection,STORAGE_4_Z20_ZONEEQUIPMENTOUTLETNODE,AIRLOOPHVAC:ZONEMIXER,STORAGE_4_Z20_RETURNAIRMIXER,Outlet,1
 Non-Parent Node Connection,STORAGE_4_Z20_RETURNAIR,AIRLOOPHVAC:ZONEMIXER,STORAGE_4_Z20_RETURNAIRMIXER,Inlet,1
 Non-Parent Node Connection,MECHANICAL_0_Z1_HEATC-FANNODE,FAN:VARIABLEVOLUME,MECHANICAL_0_Z1_SUPPLYFAN,Inlet,1
 Non-Parent Node Connection,MECHANICAL_0_Z1_SUPPLYEQUIPMENTOUTLETNODE,FAN:VARIABLEVOLUME,MECHANICAL_0_Z1_SUPPLYFAN,Outlet,1
 Non-Parent Node Connection,OFFICE_OPEN_0_Z2_HEATC-FANNODE,FAN:VARIABLEVOLUME,OFFICE_OPEN_0_Z2_SUPPLYFAN,Inlet,1
 Non-Parent Node Connection,OFFICE_OPEN_0_Z2_SUPPLYEQUIPMENTOUTLETNODE,FAN:VARIABLEVOLUME,OFFICE_OPEN_0_Z2_SUPPLYFAN,Outlet,1
 Non-Parent Node Connection,OFFICE_PRIVATE_0_Z3_HEATC-FANNODE,FAN:VARIABLEVOLUME,OFFICE_PRIVATE_0_Z3_SUPPLYFAN,Inlet,1
 Non-Parent Node Connection,OFFICE_PRIVATE_0_Z3_SUPPLYEQUIPMENTOUTLETNODE,FAN:VARIABLEVOLUME,OFFICE_PRIVATE_0_Z3_SUPPLYFAN,Outlet,1
 Non-Parent Node Connection,STORAGE_0_Z4_HEATC-FANNODE,FAN:VARIABLEVOLUME,STORAGE_0_Z4_SUPPLYFAN,Inlet,1
 Non-Parent Node Connection,STORAGE_0_Z4_SUPPLYEQUIPMENTOUTLETNODE,FAN:VARIABLEVOLUME,STORAGE_0_Z4_SUPPLYFAN,Outlet,1
 Non-Parent Node Connection,LOBBY_1_Z5_HEATC-FANNODE,FAN:VARIABLEVOLUME,LOBBY_1_Z5_SUPPLYFAN,Inlet,1
 Non-Parent Node Connection,LOBBY_1_Z5_SUPPLYEQUIPMENTOUTLETNODE,FAN:VARIABLEVOLUME,LOBBY_1_Z5_SUPPLYFAN,Outlet,1
 Non-Parent Node Connection,CONFERENCE_1_Z6_HEATC-FANNODE,FAN:VARIABLEVOLUME,CONFERENCE_1_Z6_SUPPLYFAN,Inlet,1
 Non-Parent Node Connection,CONFERENCE_1_Z6_SUPPLYEQUIPMENTOUTLETNODE,FAN:VARIABLEVOLUME,CONFERENCE_1_Z6_SUPPLYFAN,Outlet,1
 Non-Parent Node Connection,BREAK_ROOM_1_Z7_HEATC-FANNODE,FAN:VARIABLEVOLUME,BREAK_ROOM_1_Z7_SUPPLYFAN,Inlet,1
 Non-Parent Node Connection,BREAK_ROOM_1_Z7_SUPPLYEQUIPMENTOUTLETNODE,FAN:VARIABLEVOLUME,BREAK_ROOM_1_Z7_SUPPLYFAN,Outlet,1
 Non-Parent Node Connection,OFFICE_OPEN_1_Z8_HEATC-FANNODE,FAN:VARIABLEVOLUME,OFFICE_OPEN_1_Z8_SUPPLYFAN,Inlet,1
 Non-Parent Node Connection,OFFICE_OPEN_1_Z8_SUPPLYEQUIPMENTOUTLETNODE,FAN:VARIABLEVOLUME,OFFICE_OPEN_1_Z8_SUPPLYFAN,Outlet,1
 Non-Parent Node Connection,OFFICE_PRIVATE_1_Z9_HEATC-FANNODE,FAN:VARIABLEVOLUME,OFFICE_PRIVATE_1_Z9_SUPPLYFAN,Inlet,1
 Non-Parent Node Connection,OFFICE_PRIVATE_1_Z9_SUPPLYEQUIPMENTOUTLETNODE,FAN:VARIABLEVOLUME,OFFICE_PRIVATE_1_Z9_SUPPLYFAN,Outlet,1
 Non-Parent Node Connection,CONFERENCE_2_Z10_HEATC-FANNODE,FAN:VARIABLEVOLUME,CONFERENCE_2_Z10_SUPPLYFAN,Inlet,1
 Non-Parent Node Connection,CONFERENCE_2_Z10_SUPPLYEQUIPMENTOUTLETNODE,FAN:VARIABLEVOLUME,CONFERENCE_2_Z10_SUPPLYFAN,Outlet,1
 Non-Parent Node Connection,BREAK_ROOM_2_Z11_HEATC-FANNODE,FAN:VARIABLEVOLUME,BREAK_ROOM_2_Z11_SUPPLYFAN,Inlet,1
 Non-Parent Node Connection,BREAK_ROOM_2_Z11_SUPPLYEQUIPMENTOUTLETNODE,FAN:VARIABLEVOLUME,BREAK_ROOM_2_Z11_SUPPLYFAN,Outlet,1
 Non-Parent Node Connection,OFFICE_PRIVATE_2_Z12_HEATC-FANNODE,FAN:VARIABLEVOLUME,OFFICE_PRIVATE_2_Z12_SUPPLYFAN,Inlet,1
 Non-Parent Node Connection,OFFICE_PRIVATE_2_Z12_SUPPLYEQUIPMENTOUTLETNODE,FAN:VARIABLEVOLUME,OFFICE_PRIVATE_2_Z12_SUPPLYFAN,Outlet,1
 Non-Parent Node Connection,CONFERENCE_3_Z13_HEATC-FANNODE,FAN:VARIABLEVOLUME,CONFERENCE_3_Z13_SUPPLYFAN,Inlet,1
 Non-Parent Node Connection,CONFERENCE_3_Z13_SUPPLYEQUIPMENTOUTLETNODE,FAN:VARIABLEVOLUME,CONFERENCE_3_Z13_SUPPLYFAN,Outlet,1
 Non-Parent Node Connection,MECHANICAL_3_Z14_HEATC-FANNODE,FAN:VARIABLEVOLUME,MECHANICAL_3_Z14_SUPPLYFAN,Inlet,1
 Non-Parent Node Connection,MECHANICAL_3_Z14_SUPPLYEQUIPMENTOUTLETNODE,FAN:VARIABLEVOLUME,MECHANICAL_3_Z14_SUPPLYFAN,Outlet,1
 Non-Parent Node Connection,OFFICE_OPEN_3_Z15_HEATC-FANNODE,FAN:VARIABLEVOLUME,OFFICE_OPEN_3_Z15_SUPPLYFAN,Inlet,1
 Non-Parent Node Connection,OFFICE_OPEN_3_Z15_SUPPLYEQUIPMENTOUTLETNODE,FAN:VARIABLEVOLUME,OFFICE_OPEN_3_Z15_SUPPLYFAN,Outlet,1
 Non-Parent Node Connection,OFFICE_PRIVATE_3_Z16_HEATC-FANNODE,FAN:VARIABLEVOLUME,OFFICE_PRIVATE_3_Z16_SUPPLYFAN,Inlet,1
 Non-Parent Node Connection,OFFICE_PRIVATE_3_Z16_SUPPLYEQUIPMENTOUTLETNODE,FAN:VARIABLEVOLUME,OFFICE_PRIVATE_3_Z16_SUPPLYFAN,Outlet,1
 Non-Parent Node Connection,STORAGE_3_Z17_HEATC-FANNODE,FAN:VARIABLEVOLUME,STORAGE_3_Z17_SUPPLYFAN,Inlet,1
 Non-Parent Node Connection,STORAGE_3_Z17_SUPPLYEQUIPMENTOUTLETNODE,FAN:VARIABLEVOLUME,STORAGE_3_Z17_SUPPLYFAN,Outlet,1
 Non-Parent Node Connection,CONFERENCE_4_Z18_HEATC-FANNODE,FAN:VARIABLEVOLUME,CONFERENCE_4_Z18_SUPPLYFAN,Inlet,1
 Non-Parent Node Connection,CONFERENCE_4_Z18_SUPPLYEQUIPMENTOUTLETNODE,FAN:VARIABLEVOLUME,CONFERENCE_4_Z18_SUPPLYFAN,Outlet,1
 Non-Parent Node Connection,OFFICE_OPEN_4_Z19_HEATC-FANNODE,FAN:VARIABLEVOLUME,OFFICE_OPEN_4_Z19_SUPPLYFAN,Inlet,1
 Non-Parent Node Connection,OFFICE_OPEN_4_Z19_SUPPLYEQUIPMENTOUTLETNODE,FAN:VARIABLEVOLUME,OFFICE_OPEN_4_Z19_SUPPLYFAN,Outlet,1
 Non-Parent Node Connection,STORAGE_4_Z20_HEATC-FANNODE,FAN:VARIABLEVOLUME,STORAGE_4_Z20_SUPPLYFAN,Inlet,1
 Non-Parent Node Connection,STORAGE_4_Z20_SUPPLYEQUIPMENTOUTLETNODE,FAN:VARIABLEVOLUME,STORAGE_4_Z20_SUPPLYFAN,Outlet,1
 Non-Parent Node Connection,MECHANICAL_0_Z1_SUPPLYINLET,COIL:COOLING:DX:SINGLESPEED,MECHANICAL_0_Z1_COOLINGCOILDX,Inlet,1
 Non-Parent Node Connection,MECHANICAL_0_Z1_COOLC-HEATCNODE,COIL:COOLING:DX:SINGLESPEED,MECHANICAL_0_Z1_COOLINGCOILDX,Outlet,1
 Non-Parent Node Connection,OFFICE_OPEN_0_Z2_SUPPLYINLET,COIL:COOLING:DX:SINGLESPEED,OFFICE_OPEN_0_Z2_COOLINGCOILDX,Inlet,1
 Non-Parent Node Connection,OFFICE_OPEN_0_Z2_COOLC-HEATCNODE,COIL:COOLING:DX:SINGLESPEED,OFFICE_OPEN_0_Z2_COOLINGCOILDX,Outlet,1
 Non-Parent Node Connection,OFFICE_PRIVATE_0_Z3_SUPPLYINLET,COIL:COOLING:DX:SINGLESPEED,OFFICE_PRIVATE_0_Z3_COOLINGCOILDX,Inlet,1
 Non-Parent Node Connection,OFFICE_PRIVATE_0_Z3_COOLC-HEATCNODE,COIL:COOLING:DX:SINGLESPEED,OFFICE_PRIVATE_0_Z3_COOLINGCOILDX,Outlet,1
 Non-Parent Node Connection,STORAGE_0_Z4_SUPPLYINLET,COIL:COOLING:DX:SINGLESPEED,STORAGE_0_Z4_COOLINGCOILDX,Inlet,1
 Non-Parent Node Connection,STORAGE_0_Z4_COOLC-HEATCNODE,COIL:COOLING:DX:SINGLESPEED,STORAGE_0_Z4_COOLINGCOILDX,Outlet,1
 Non-Parent Node Connection,LOBBY_1_Z5_SUPPLYINLET,COIL:COOLING:DX:SINGLESPEED,LOBBY_1_Z5_COOLINGCOILDX,Inlet,1
 Non-Parent Node Connection,LOBBY_1_Z5_COOLC-HEATCNODE,COIL:COOLING:DX:SINGLESPEED,LOBBY_1_Z5_COOLINGCOILDX,Outlet,1
 Non-Parent Node Connection,CONFERENCE_1_Z6_SUPPLYINLET,COIL:COOLING:DX:SINGLESPEED,CONFERENCE_1_Z6_COOLINGCOILDX,Inlet,1
 Non-Parent Node Connection,CONFERENCE_1_Z6_COOLC-HEATCNODE,COIL:COOLING:DX:SINGLESPEED,CONFERENCE_1_Z6_COOLINGCOILDX,Outlet,1
 Non-Parent Node Connection,BREAK_ROOM_1_Z7_SUPPLYINLET,COIL:COOLING:DX:SINGLESPEED,BREAK_ROOM_1_Z7_COOLINGCOILDX,Inlet,1
 Non-Parent Node Connection,BREAK_ROOM_1_Z7_COOLC-HEATCNODE,COIL:COOLING:DX:SINGLESPEED,BREAK_ROOM_1_Z7_COOLINGCOILDX,Outlet,1
 Non-Parent Node Connection,OFFICE_OPEN_1_Z8_SUPPLYINLET,COIL:COOLING:DX:SINGLESPEED,OFFICE_OPEN_1_Z8_COOLINGCOILDX,Inlet,1
 Non-Parent Node Connection,OFFICE_OPEN_1_Z8_COOLC-HEATCNODE,COIL:COOLING:DX:SINGLESPEED,OFFICE_OPEN_1_Z8_COOLINGCOILDX,Outlet,1
 Non-Parent Node Connection,OFFICE_PRIVATE_1_Z9_SUPPLYINLET,COIL:COOLING:DX:SINGLESPEED,OFFICE_PRIVATE_1_Z9_COOLINGCOILDX,Inlet,1
 Non-Parent Node Connection,OFFICE_PRIVATE_1_Z9_COOLC-HEATCNODE,COIL:COOLING:DX:SINGLESPEED,OFFICE_PRIVATE_1_Z9_COOLINGCOILDX,Outlet,1
 Non-Parent Node Connection,CONFERENCE_2_Z10_SUPPLYINLET,COIL:COOLING:DX:SINGLESPEED,CONFERENCE_2_Z10_COOLINGCOILDX,Inlet,1
 Non-Parent Node Connection,CONFERENCE_2_Z10_COOLC-HEATCNODE,COIL:COOLING:DX:SINGLESPEED,CONFERENCE_2_Z10_COOLINGCOILDX,Outlet,1
 Non-Parent Node Connection,BREAK_ROOM_2_Z11_SUPPLYINLET,COIL:COOLING:DX:SINGLESPEED,BREAK_ROOM_2_Z11_COOLINGCOILDX,Inlet,1
 Non-Parent Node Connection,BREAK_ROOM_2_Z11_COOLC-HEATCNODE,COIL:COOLING:DX:SINGLESPEED,BREAK_ROOM_2_Z11_COOLINGCOILDX,Outlet,1
 Non-Parent Node Connection,OFFICE_PRIVATE_2_Z12_SUPPLYINLET,COIL:COOLING:DX:SINGLESPEED,OFFICE_PRIVATE_2_Z12_COOLINGCOILDX,Inlet,1
 Non-Parent Node Connection,OFFICE_PRIVATE_2_Z12_COOLC-HEATCNODE,COIL:COOLING:DX:SINGLESPEED,OFFICE_PRIVATE_2_Z12_COOLINGCOILDX,Outlet,1
 Non-Parent Node Connection,CONFERENCE_3_Z13_SUPPLYINLET,COIL:COOLING:DX:SINGLESPEED,CONFERENCE_3_Z13_COOLINGCOILDX,Inlet,1
 Non-Parent Node Connection,CONFERENCE_3_Z13_COOLC-HEATCNODE,COIL:COOLING:DX:SINGLESPEED,CONFERENCE_3_Z13_COOLINGCOILDX,Outlet,1
 Non-Parent Node Connection,MECHANICAL_3_Z14_SUPPLYINLET,COIL:COOLING:DX:SINGLESPEED,MECHANICAL_3_Z14_COOLINGCOILDX,Inlet,1
 Non-Parent Node Connection,MECHANICAL_3_Z14_COOLC-HEATCNODE,COIL:COOLING:DX:SINGLESPEED,MECHANICAL_3_Z14_COOLINGCOILDX,Outlet,1
 Non-Parent Node Connection,OFFICE_OPEN_3_Z15_SUPPLYINLET,COIL:COOLING:DX:SINGLESPEED,OFFICE_OPEN_3_Z15_COOLINGCOILDX,Inlet,1
 Non-Parent Node Connection,OFFICE_OPEN_3_Z15_COOLC-HEATCNODE,COIL:COOLING:DX:SINGLESPEED,OFFICE_OPEN_3_Z15_COOLINGCOILDX,Outlet,1
 Non-Parent Node Connection,OFFICE_PRIVATE_3_Z16_SUPPLYINLET,COIL:COOLING:DX:SINGLESPEED,OFFICE_PRIVATE_3_Z16_COOLINGCOILDX,Inlet,1
 Non-Parent Node Connection,OFFICE_PRIVATE_3_Z16_COOLC-HEATCNODE,COIL:COOLING:DX:SINGLESPEED,OFFICE_PRIVATE_3_Z16_COOLINGCOILDX,Outlet,1
 Non-Parent Node Connection,STORAGE_3_Z17_SUPPLYINLET,COIL:COOLING:DX:SINGLESPEED,STORAGE_3_Z17_COOLINGCOILDX,Inlet,1
 Non-Parent Node Connection,STORAGE_3_Z17_COOLC-HEATCNODE,COIL:COOLING:DX:SINGLESPEED,STORAGE_3_Z17_COOLINGCOILDX,Outlet,1
 Non-Parent Node Connection,CONFERENCE_4_Z18_SUPPLYINLET,COIL:COOLING:DX:SINGLESPEED,CONFERENCE_4_Z18_COOLINGCOILDX,Inlet,1
 Non-Parent Node Connection,CONFERENCE_4_Z18_COOLC-HEATCNODE,COIL:COOLING:DX:SINGLESPEED,CONFERENCE_4_Z18_COOLINGCOILDX,Outlet,1
 Non-Parent Node Connection,OFFICE_OPEN_4_Z19_SUPPLYINLET,COIL:COOLING:DX:SINGLESPEED,OFFICE_OPEN_4_Z19_COOLINGCOILDX,Inlet,1
 Non-Parent Node Connection,OFFICE_OPEN_4_Z19_COOLC-HEATCNODE,COIL:COOLING:DX:SINGLESPEED,OFFICE_OPEN_4_Z19_COOLINGCOILDX,Outlet,1
 Non-Parent Node Connection,STORAGE_4_Z20_SUPPLYINLET,COIL:COOLING:DX:SINGLESPEED,STORAGE_4_Z20_COOLINGCOILDX,Inlet,1
 Non-Parent Node Connection,STORAGE_4_Z20_COOLC-HEATCNODE,COIL:COOLING:DX:SINGLESPEED,STORAGE_4_Z20_COOLINGCOILDX,Outlet,1
