Program Version,EnergyPlus, Version 24.2.0-94a887817b, YMD=2025.11.01 00:17
! <Version>, Version ID
 Version, 24.2.0
! <Timesteps per Hour>, #TimeSteps, Minutes per TimeStep {minutes}
 Timesteps per Hour,  4, 15
! <System Convergence Limits>, Minimum System TimeStep {minutes}, Max HVAC Iterations, Minimum Plant Iterations, Maximum Plant Iterations
 System Convergence Limits, 1, 20, 2, 8
! <Simulation Control>, Do Zone Sizing, Do System Sizing, Do Plant Sizing, Do Design Days, Do Weather Simulation, Do HVAC Sizing Simulation
 Simulation Control, No, No, No, No, Yes, No
! <Performance Precision Tradeoffs>, Use Coil Direct Simulation, Zone Radiant Exchange Algorithm, Override Mode, Number of Timestep In Hour, Force Euler Method, Minimum Number of Warmup Days, Force Suppress All Begin Environment Resets, Minimum System Timestep, MaxZoneTempDiff, MaxAllowedDelTemp
 Performance Precision Tradeoffs, No, ScriptF, Normal, 4, No, 1, No, 1.0, 0.300, 2.0000E-003
! <Output Reporting Tolerances>, Tolerance for Time Heating Setpoint Not Met, Tolerance for Zone Cooling Setpoint Not Met Time
 Output Reporting Tolerances, 0.200, 0.200, 
! <Site:GroundTemperature:BuildingSurface>,Jan{C},Feb{C},Mar{C},Apr{C},May{C},Jun{C},Jul{C},Aug{C},Sep{C},Oct{C},Nov{C},Dec{C}
 Site:GroundTemperature:BuildingSurface,  20.00,  20.00,  20.00,  20.00,  20.00,  20.00,  20.00,  20.00,  20.00,  20.00,  20.00,  20.00
! <Site:GroundTemperature:FCfactorMethod>,Jan{C},Feb{C},Mar{C},Apr{C},May{C},Jun{C},Jul{C},Aug{C},Sep{C},Oct{C},Nov{C},Dec{C}
 Site:GroundTemperature:FCfactorMethod,  -1.89,  -3.06,  -0.99,   2.23,  10.68,  17.20,  21.60,  22.94,  20.66,  15.60,   8.83,   2.56
! <Site:GroundTemperature:Shallow>,Jan{C},Feb{C},Mar{C},Apr{C},May{C},Jun{C},Jul{C},Aug{C},Sep{C},Oct{C},Nov{C},Dec{C}
 Site:GroundTemperature:Shallow,  13.00,  13.00,  13.00,  13.00,  13.00,  13.00,  13.00,  13.00,  13.00,  13.00,  13.00,  13.00
! <Site:GroundTemperature:Deep>,Jan{C},Feb{C},Mar{C},Apr{C},May{C},Jun{C},Jul{C},Aug{C},Sep{C},Oct{C},Nov{C},Dec{C}
 Site:GroundTemperature:Deep,  16.00,  16.00,  16.00,  16.00,  16.00,  16.00,  16.00,  16.00,  16.00,  16.00,  16.00,  16.00
! <Site:GroundReflectance>,Jan{dimensionless},Feb{dimensionless},Mar{dimensionless},Apr{dimensionless},May{dimensionless},Jun{dimensionless},Jul{dimensionless},Aug{dimensionless},Sep{dimensionless},Oct{dimensionless},Nov{dimensionless},Dec{dimensionless}
 Site:GroundReflectance,  0.20,  0.20,  0.20,  0.20,  0.20,  0.20,  0.20,  0.20,  0.20,  0.20,  0.20,  0.20
! <Site:GroundReflectance:SnowModifier>, Normal, Daylighting {dimensionless}
 Site:GroundReflectance:SnowModifier,   1.000,   1.000
! <Site:GroundReflectance:Snow>,Jan{dimensionless},Feb{dimensionless},Mar{dimensionless},Apr{dimensionless},May{dimensionless},Jun{dimensionless},Jul{dimensionless},Aug{dimensionless},Sep{dimensionless},Oct{dimensionless},Nov{dimensionless},Dec{dimensionless}
 Site:GroundReflectance:Snow,  0.20,  0.20,  0.20,  0.20,  0.20,  0.20,  0.20,  0.20,  0.20,  0.20,  0.20,  0.20
! <Site:GroundReflectance:Snow:Daylighting>,Jan{dimensionless},Feb{dimensionless},Mar{dimensionless},Apr{dimensionless},May{dimensionless},Jun{dimensionless},Jul{dimensionless},Aug{dimensionless},Sep{dimensionless},Oct{dimensionless},Nov{dimensionless},Dec{dimensionless}
 Site:GroundReflectance:Snow:Daylighting,  0.20,  0.20,  0.20,  0.20,  0.20,  0.20,  0.20,  0.20,  0.20,  0.20,  0.20,  0.20
! <Environment:Weather Station>,Wind Sensor Height Above Ground {m},Wind Speed Profile Exponent {},Wind Speed Profile Boundary Layer Thickness {m},Air Temperature Sensor Height Above Ground {m},Wind Speed Modifier Coefficient-Internal,Temperature Modifier Coefficient-Internal
Environment:Weather Station,10.000,0.140,270.000,1.500,1.586,9.750E-003
! <Site:Location>, Location Name, Latitude {N+/S- Deg}, Longitude {E+/W- Deg},  Time Zone Number {GMT+/-}, Elevation {m},  Standard Pressure at Elevation {Pa}, Standard RhoAir at Elevation
Site:Location,Chicago Ohare Intl Ap IL USA TMY3 WMO#=725300,41.98,-87.92,-6.00,201.00,98934,1.1759
! <Site Water Mains Temperature Information>,Calculation Method{},Water Mains Temperature Schedule Name{},Annual Average Outdoor Air Temperature{C},Maximum Difference In Monthly Average Outdoor Air Temperatures{deltaC},Fixed Default Water Mains Temperature{C}
Site Water Mains Temperature Information,FixedDefault,NA,NA,NA,10.0
! <Building Information>, Building Name,North Axis {deg},Terrain,  Loads Convergence Tolerance Value,Temperature Convergence Tolerance Value,  Solar Distribution,Maximum Number of Warmup Days,Minimum Number of Warmup Days
 Building Information,Professional Building,0.000,Suburbs,4.00000E-002,0.20000,FullInteriorAndExterior,15,6
! <Inside Convection Algorithm>, Algorithm {Simple | TARP | CeilingDiffuser | AdaptiveConvectionAlgorithm}
Inside Convection Algorithm,TARP
! <Outside Convection Algorithm>, Algorithm {SimpleCombined | TARP | MoWitt | DOE-2 | AdaptiveConvectionAlgorithm}
Outside Convection Algorithm,DOE-2
! <Sky Radiance Distribution>, Value {Anisotropic}
Sky Radiance Distribution,Anisotropic
! <Zone Air Solution Algorithm>, Algorithm {ThirdOrderBackwardDifference | AnalyticalSolution | EulerMethod}, Space Heat Balance Sizing, Space Heat Balance Simulation
 Zone Air Solution Algorithm, ThirdOrderBackwardDifference, No, No
! <Zone Air Carbon Dioxide Balance Simulation>, Simulation {Yes/No}, Carbon Dioxide Concentration
 Zone Air Carbon Dioxide Balance Simulation, No,N/A
! <Zone Air Generic Contaminant Balance Simulation>, Simulation {Yes/No}, Generic Contaminant Concentration
 Zone Air Generic Contaminant Balance Simulation, No,N/A
! <Zone Air Mass Flow Balance Simulation>, Enforce Mass Balance, Adjust Zone Mixing and Return {AdjustMixingOnly | AdjustReturnOnly | AdjustMixingThenReturn | AdjustReturnThenMixing | None}, Adjust Zone Infiltration {AddInfiltration | AdjustInfiltration | None}, Infiltration Zones {MixingSourceZonesOnly | AllZones}
 Zone Air Mass Flow Balance Simulation, No,N/A,N/A,N/A
! <HVACSystemRootFindingAlgorithm>, Value {RegulaFalsi | Bisection | BisectionThenRegulaFalsi | RegulaFalsiThenBisection}
 HVACSystemRootFindingAlgorithm, RegulaFalsi
! <Environment:Site Atmospheric Variation>,Wind Speed Profile Exponent {},Wind Speed Profile Boundary Layer Thickness {m},Air Temperature Gradient Coefficient {K/m}
Environment:Site Atmospheric Variation,0.220,370.000,6.500000E-003
! <Shadowing/Sun Position Calculations Annual Simulations>, Shading Calculation Method, Shading Calculation Update Frequency Method, Shading Calculation Update Frequency {days}, Maximum Figures in Shadow Overlap Calculations {}, Polygon Clipping Algorithm, Pixel Counting Resolution, Sky Diffuse Modeling Algorithm, Output External Shading Calculation Results, Disable Self-Shading Within Shading Zone Groups, Disable Self-Shading From Shading Zone Groups to Other Zones
Shadowing/Sun Position Calculations Annual Simulations,PolygonClipping,Periodic,20,15000,SutherlandHodgman,512,SimpleSkyDiffuseModeling,No,No,No
! <Surface Geometry>,Starting Corner,Vertex Input Direction,Coordinate System,Daylight Reference Point Coordinate System,Rectangular (Simple) Surface Coordinate System
 Surface Geometry,UpperLeftCorner,Counterclockwise,RelativeCoordinateSystem,RelativeCoordinateSystem,RelativeToZoneOrigin
! <Surface Heat Transfer Algorithm>, Value {CTF - ConductionTransferFunction | EMPD - MoisturePenetrationDepthConductionTransferFunction | CondFD - ConductionFiniteDifference | HAMT - CombinedHeatAndMoistureFiniteElement} - Description,Inside Surface Max Temperature Limit{C}, Surface Convection Coefficient Lower Limit {W/m2-K}, Surface Convection Coefficient Upper Limit {W/m2-K}
Surface Heat Transfer Algorithm, CTF - ConductionTransferFunction,200,0.10,1000.0
! <Shading Summary>, Number of Fixed Detached Shades, Number of Building Detached Shades, Number of Attached Shades
 Shading Summary,0,0,0
! <Zone Summary>, Number of Zones, Number of Zone Surfaces, Number of SubSurfaces
 Zone Summary,8,88,32
! <Zone Information>,Zone Name,North Axis {deg},Origin X-Coordinate {m},Origin Y-Coordinate {m},Origin Z-Coordinate {m},Centroid X-Coordinate {m},Centroid Y-Coordinate {m},Centroid Z-Coordinate {m},Type,Zone Multiplier,Zone List Multiplier,Minimum X {m},Maximum X {m},Minimum Y {m},Maximum Y {m},Minimum Z {m},Maximum Z {m},Ceiling Height {m},Volume {m3},Zone Inside Convection Algorithm {Simple-Detailed-CeilingDiffuser-TrombeWall},Zone Outside Convection Algorithm {Simple-Detailed-Tarp-MoWitt-DOE-2-BLAST}, Floor Area {m2},Exterior Gross Wall Area {m2},Exterior Net Wall Area {m2},Exterior Window Area {m2}, Number of Surfaces, Number of SubSurfaces, Number of Shading SubSurfaces,  Part of Total Building Area
 Zone Information, CONFERENCE_0,0.0,0.00,0.00,0.00,114.56,-33.55,1.50,1,1,1,112.20,116.92,-37.29,-29.80,0.00,3.00,3.00,102.22,TARP,DOE-2,34.07,71.99,50.32,21.67,6,4,0,Yes
 Zone Information, OFFICE_PRIVATE_1,0.0,0.00,0.00,0.00,110.85,-39.16,4.50,1,1,1,108.75,112.95,-41.75,-36.56,3.00,6.00,3.00,62.55,TARP,DOE-2,20.85,55.11,38.52,16.59,6,4,0,Yes
 Zone Information, LOBBY_2,0.0,0.00,0.00,0.00,41.92,29.13,7.50,1,1,1,37.09,46.76,21.73,36.54,6.00,9.00,3.00,422.39,TARP,DOE-2,140.80,145.69,101.84,43.85,6,4,0,Yes
 Zone Information, CONFERENCE_3,0.0,0.00,0.00,0.00,78.08,-14.94,10.50,1,1,1,74.00,82.15,-19.95,-9.93,9.00,12.00,3.00,239.51,TARP,DOE-2,79.84,107.81,75.36,32.45,6,4,0,Yes
 Zone Information, MECHANICAL_3,0.0,0.00,0.00,0.00,109.12,-48.72,10.50,1,1,1,106.59,111.66,-52.40,-45.05,9.00,12.00,3.00,108.10,TARP,DOE-2,36.03,73.33,51.26,22.07,6,4,0,Yes
 Zone Information, OFFICE_OPEN_3,0.0,0.00,0.00,0.00,94.37,-4.46,10.50,1,1,1,84.78,103.96,-14.13,5.20,9.00,12.00,3.00,1100.70,TARP,DOE-2,366.90,229.86,160.68,69.18,6,4,0,Yes
 Zone Information, LOBBY_4,0.0,0.00,0.00,0.00,47.64,29.11,13.50,1,1,1,43.30,51.98,21.25,36.98,12.00,15.00,3.00,402.43,TARP,DOE-2,134.14,145.28,101.56,43.72,6,4,0,Yes
 Zone Information, STORAGE_4,0.0,0.00,0.00,0.00,61.58,13.52,13.50,1,1,1,59.41,63.75,9.90,17.15,12.00,15.00,3.00,90.96,TARP,DOE-2,30.32,68.35,47.78,20.57,6,4,0,Yes
! <Zone Internal Gains Nominal>,Zone Name, Floor Area {m2},# Occupants,Area per Occupant {m2/person},Occupant per Area {person/m2},Interior Lighting {W/m2},Electric Load {W/m2},Gas Load {W/m2},Other Load {W/m2},Hot Water Eq {W/m2},Steam Equipment {W/m2},Sum Loads per Area {W/m2},Outdoor Controlled Baseboard Heat
 Zone Internal Gains Nominal, CONFERENCE_0,34.07,6.0,5.679,0.176,10.800,8.100,0.000,0.000,0.000,0.000,18.900,No
 Zone Internal Gains Nominal, OFFICE_PRIVATE_1,20.85,1.0,20.848,4.797E-002,10.800,8.100,0.000,0.000,0.000,0.000,18.900,No
 Zone Internal Gains Nominal, LOBBY_2,140.80,7.0,20.114,4.972E-002,12.900,3.200,0.000,0.000,0.000,0.000,16.100,No
 Zone Internal Gains Nominal, CONFERENCE_3,79.84,15.0,5.323,0.188,10.800,8.100,0.000,0.000,0.000,0.000,18.900,No
 Zone Internal Gains Nominal, MECHANICAL_3,36.03,1.0,36.034,2.775E-002,5.400,0.000,0.000,0.000,0.000,0.000,5.400,No
 Zone Internal Gains Nominal, OFFICE_OPEN_3,366.90,18.0,20.383,4.906E-002,10.800,8.100,0.000,0.000,0.000,0.000,18.900,No
 Zone Internal Gains Nominal, LOBBY_4,134.14,6.0,22.357,4.473E-002,12.900,3.200,0.000,0.000,0.000,0.000,16.100,No
 Zone Internal Gains Nominal, STORAGE_4,30.32,1.0,30.322,3.298E-002,5.400,1.100,0.000,0.000,0.000,0.000,6.500,No
! <People Internal Gains Nominal>,Name,Schedule Name,Zone Name,Zone Floor Area {m2},# Zone Occupants,Number of People {},People/Floor Area {person/m2},Floor Area per person {m2/person},Fraction Radiant,Fraction Convected,Sensible Fraction Calculation,Activity level,ASHRAE 55 Warnings,Carbon Dioxide Generation Rate,Minimum Number of People for All Day Types,Maximum Number of People for All Day Types,Minimum Number of People for Weekdays, Maximum Number of People for Weekdays, Minimum Number of People for Weekends/Holidays, Maximum Number of People for Weekends /Holidays,Minimum Number of People for Summer Design Days, Maximum Number of People for Summer Design Days,Minimum Number of People for Winter Design Days, Maximum Number of People for Winter Design Days
 People Internal Gains Nominal, CONFERENCE_0_PEOPLE,CONFERENCE_OCCUPANCY,CONFERENCE_0,34.07,6.0,6.0,0.176,5.679,0.300,0.700,0.100,CONFERENCE_ACTIVITY,No,3.8200E-008,4.8,4.8,4.8,4.8,4.8,4.8,4.8,4.8,4.8,4.8,
 People Internal Gains Nominal, OFFICE_PRIVATE_1_PEOPLE,OFFICE_OPEN_OCCUPANCY,OFFICE_PRIVATE_1,20.85,1.0,1.0,4.797E-002,20.848,0.300,0.700,0.100,OFFICE_OPEN_ACTIVITY,No,3.8200E-008,0.8,0.8,0.8,0.8,0.8,0.8,0.8,0.8,0.8,0.8,
 People Internal Gains Nominal, LOBBY_2_PEOPLE,LOBBY_OCCUPANCY,LOBBY_2,140.80,7.0,7.0,4.972E-002,20.114,0.300,0.700,0.100,LOBBY_ACTIVITY,No,3.8200E-008,5.6,5.6,5.6,5.6,5.6,5.6,5.6,5.6,5.6,5.6,
 People Internal Gains Nominal, CONFERENCE_3_PEOPLE,CONFERENCE_OCCUPANCY,CONFERENCE_3,79.84,15.0,15.0,0.188,5.323,0.300,0.700,0.100,CONFERENCE_ACTIVITY,No,3.8200E-008,12.0,12.0,12.0,12.0,12.0,12.0,12.0,12.0,12.0,12.0,
 People Internal Gains Nominal, MECHANICAL_3_PEOPLE,MECHANICAL_OCCUPANCY,MECHANICAL_3,36.03,1.0,1.0,2.775E-002,36.034,0.300,0.700,0.100,MECHANICAL_ACTIVITY,No,3.8200E-008,0.8,0.8,0.8,0.8,0.8,0.8,0.8,0.8,0.8,0.8,
 People Internal Gains Nominal, OFFICE_OPEN_3_PEOPLE,OFFICE_OPEN_OCCUPANCY,OFFICE_OPEN_3,366.90,18.0,18.0,4.906E-002,20.383,0.300,0.700,0.100,OFFICE_OPEN_ACTIVITY,No,3.8200E-008,14.4,14.4,14.4,14.4,14.4,14.4,14.4,14.4,14.4,14.4,
 People Internal Gains Nominal, LOBBY_4_PEOPLE,LOBBY_OCCUPANCY,LOBBY_4,134.14,6.0,6.0,4.473E-002,22.357,0.300,0.700,0.100,LOBBY_ACTIVITY,No,3.8200E-008,4.8,4.8,4.8,4.8,4.8,4.8,4.8,4.8,4.8,4.8,
 People Internal Gains Nominal, STORAGE_4_PEOPLE,STORAGE_OCCUPANCY,STORAGE_4,30.32,1.0,1.0,3.298E-002,30.322,0.300,0.700,0.100,STORAGE_ACTIVITY,No,3.8200E-008,0.8,0.8,0.8,0.8,0.8,0.8,0.8,0.8,0.8,0.8,
! <Lights Internal Gains Nominal>,Name,Schedule Name,Zone Name,Zone Floor Area {m2},# Zone Occupants,Lighting Level {W},Lights/Floor Area {W/m2},Lights per person {W/person},Fraction Return Air,Fraction Radiant,Fraction Short Wave,Fraction Convected,Fraction Replaceable,End-Use, Minimum Lighting Level for All Day Types {W},Maximum Lighting Level for All Day Types {W},Minimum Lighting Level for Weekdays {W}, Maximum Lighting Level for Weekdays {W},Minimum Lighting Level for Weekends/Holidays {W}, Maximum Lighting Level for Weekends /Holidays {W},Minimum Lighting Level for Summer Design Days {W}, Maximum Lighting Level for Summer Design Days {W},Minimum Lighting Level for Winter Design Days {W}, Maximum Lighting Level for Winter Design Days {W}
 Lights Internal Gains Nominal, CONFERENCE_0_LIGHTS,CONFERENCE_LIGHTING,CONFERENCE_0,34.07,6.0,368.000,10.800,61.333,0.000,0.300,0.200,0.500,1.000,General,368.000,368.000,368.000,368.0,368.000,368.000,368.000,368.000,368.000,368.000
 Lights Internal Gains Nominal, OFFICE_PRIVATE_1_LIGHTS,OFFICE_OPEN_LIGHTING,OFFICE_PRIVATE_1,20.85,1.0,225.163,10.800,225.163,0.000,0.300,0.200,0.500,1.000,General,225.163,225.163,225.163,225.2,225.163,225.163,225.163,225.163,225.163,225.163
 Lights Internal Gains Nominal, LOBBY_2_LIGHTS,LOBBY_LIGHTING,LOBBY_2,140.80,7.0,1816.289,12.900,259.470,0.000,0.300,0.200,0.500,1.000,General,1816.289,1816.289,1816.289,1816.3,1816.289,1816.289,1816.289,1816.289,1816.289,1816.289
 Lights Internal Gains Nominal, CONFERENCE_3_LIGHTS,CONFERENCE_LIGHTING,CONFERENCE_3,79.84,15.0,862.252,10.800,57.483,0.000,0.300,0.200,0.500,1.000,General,862.252,862.252,862.252,862.3,862.252,862.252,862.252,862.252,862.252,862.252
 Lights Internal Gains Nominal, MECHANICAL_3_LIGHTS,MECHANICAL_LIGHTING,MECHANICAL_3,36.03,1.0,194.583,5.400,194.583,0.000,0.300,0.200,0.500,1.000,General,194.583,194.583,194.583,194.6,194.583,194.583,194.583,194.583,194.583,194.583
 Lights Internal Gains Nominal, OFFICE_OPEN_3_LIGHTS,OFFICE_OPEN_LIGHTING,OFFICE_OPEN_3,366.90,18.0,3962.505,10.800,220.139,0.000,0.300,0.200,0.500,1.000,General,3962.505,3962.505,3962.505,3962.5,3962.505,3962.505,3962.505,3962.505,3962.505,3962.505
 Lights Internal Gains Nominal, LOBBY_4_LIGHTS,LOBBY_LIGHTING,LOBBY_4,134.14,6.0,1730.434,12.900,288.406,0.000,0.300,0.200,0.500,1.000,General,1730.434,1730.434,1730.434,1730.4,1730.434,1730.434,1730.434,1730.434,1730.434,1730.434
 Lights Internal Gains Nominal, STORAGE_4_LIGHTS,STORAGE_LIGHTING,STORAGE_4,30.32,1.0,163.736,5.400,163.736,0.000,0.300,0.200,0.500,1.000,General,163.736,163.736,163.736,163.7,163.736,163.736,163.736,163.736,163.736,163.736
! <ElectricEquipment Internal Gains Nominal>,Name,Schedule Name,Zone Name,Zone Floor Area {m2},# Zone Occupants,Equipment Level {W},Equipment/Floor Area {W/m2},Equipment per person {W/person},Fraction Latent,Fraction Radiant,Fraction Lost,Fraction Convected,End-Use SubCategory,Minimum Equipment Level for All Day Types {W},Maximum Equipment Level for All Day Types {W},Minimum Equipment Level for Weekdays {W}, Maximum Equipment Level for Weekdays {W},Minimum Equipment Level for Weekends/Holidays {W}, Maximum Equipment Level for Weekends /Holidays {W},Minimum Equipment Level for Summer Design Days {W}, Maximum Equipment Level for Summer Design Days {W},Minimum Equipment Level for Winter Design Days {W}, Maximum Equipment Level for Winter Design Days {W}
 ElectricEquipment Internal Gains Nominal, CONFERENCE_0_EQUIPMENT,CONFERENCE_EQUIPMENT,CONFERENCE_0,34.07,6.0,276.000,8.100,46.000,0.100,0.200,0.000,0.700,General,193.200,193.200,193.200,193.200,193.200,193.200,193.200,193.200,193.200,193.200
 ElectricEquipment Internal Gains Nominal, OFFICE_PRIVATE_1_EQUIPMENT,OFFICE_OPEN_EQUIPMENT,OFFICE_PRIVATE_1,20.85,1.0,168.872,8.100,168.872,0.100,0.200,0.000,0.700,General,118.211,118.211,118.211,118.211,118.211,118.211,118.211,118.211,118.211,118.211
 ElectricEquipment Internal Gains Nominal, LOBBY_2_EQUIPMENT,LOBBY_EQUIPMENT,LOBBY_2,140.80,7.0,450.552,3.200,64.365,0.100,0.200,0.000,0.700,General,315.387,315.387,315.387,315.387,315.387,315.387,315.387,315.387,315.387,315.387
 ElectricEquipment Internal Gains Nominal, CONFERENCE_3_EQUIPMENT,CONFERENCE_EQUIPMENT,CONFERENCE_3,79.84,15.0,646.689,8.100,43.113,0.100,0.200,0.000,0.700,General,452.682,452.682,452.682,452.682,452.682,452.682,452.682,452.682,452.682,452.682
 ElectricEquipment Internal Gains Nominal, MECHANICAL_3_EQUIPMENT,MECHANICAL_EQUIPMENT,MECHANICAL_3,36.03,1.0,0.000,0.000,0.000,0.100,0.200,0.000,0.700,General,0.000,0.000,0.000,0.000,0.000,0.000,0.000,0.000,0.000,0.000
 ElectricEquipment Internal Gains Nominal, OFFICE_OPEN_3_EQUIPMENT,OFFICE_OPEN_EQUIPMENT,OFFICE_OPEN_3,366.90,18.0,2971.879,8.100,165.104,0.100,0.200,0.000,0.700,General,2080.315,2080.315,2080.315,2080.315,2080.315,2080.315,2080.315,2080.315,2080.315,2080.315
 ElectricEquipment Internal Gains Nominal, LOBBY_4_EQUIPMENT,LOBBY_EQUIPMENT,LOBBY_4,134.14,6.0,429.255,3.200,71.542,0.100,0.200,0.000,0.700,General,300.478,300.478,300.478,300.478,300.478,300.478,300.478,300.478,300.478,300.478
 ElectricEquipment Internal Gains Nominal, STORAGE_4_EQUIPMENT,STORAGE_EQUIPMENT,STORAGE_4,30.32,1.0,33.354,1.100,33.354,0.100,0.200,0.000,0.700,General,23.348,23.348,23.348,23.348,23.348,23.348,23.348,23.348,23.348,23.348
! <Enclosure/Window Adjacency Daylighting Counts>, Enclosure Name, Number of Exterior Windows, Number of Exterior Windows in Adjacent Enclosures
Enclosure/Window Adjacency Daylighting Counts, CONFERENCE_0,4,0
Enclosure/Window Adjacency Daylighting Counts, OFFICE_PRIVATE_1,4,0
Enclosure/Window Adjacency Daylighting Counts, LOBBY_2,4,0
Enclosure/Window Adjacency Daylighting Counts, CONFERENCE_3,4,0
Enclosure/Window Adjacency Daylighting Counts, OFFICE_OPEN_3,4,0
Enclosure/Window Adjacency Daylighting Counts, LOBBY_4,4,0
! <Enclosure/Window Adjacency Daylighting Matrix>, Enclosure Name, Number of Adjacent Enclosures with Windows,Adjacent Enclosure Names - 1st 100 (max)
Enclosure/Window Adjacency Daylighting Matrix, CONFERENCE_0,0
Enclosure/Window Adjacency Daylighting Matrix, OFFICE_PRIVATE_1,0
Enclosure/Window Adjacency Daylighting Matrix, LOBBY_2,0
Enclosure/Window Adjacency Daylighting Matrix, CONFERENCE_3,0
Enclosure/Window Adjacency Daylighting Matrix, OFFICE_OPEN_3,0
Enclosure/Window Adjacency Daylighting Matrix, LOBBY_4,0
! <RoomAir Model>, Zone Name, Mixing/Mundt/UCSDDV/UCSDCV/UCSDUFI/UCSDUFE/User Defined
RoomAir Model,CONFERENCE_0,Mixing/Well-Stirred
RoomAir Model,OFFICE_PRIVATE_1,Mixing/Well-Stirred
RoomAir Model,LOBBY_2,Mixing/Well-Stirred
RoomAir Model,CONFERENCE_3,Mixing/Well-Stirred
RoomAir Model,MECHANICAL_3,Mixing/Well-Stirred
RoomAir Model,OFFICE_OPEN_3,Mixing/Well-Stirred
RoomAir Model,LOBBY_4,Mixing/Well-Stirred
RoomAir Model,STORAGE_4,Mixing/Well-Stirred
! <AirflowNetwork Model:Control>, No Multizone or Distribution/Multizone with Distribution/Multizone without Distribution/Multizone with Distribution only during Fan Operation
AirflowNetwork Model:Control,NoMultizoneOrDistribution
! <Zone Volume Capacitance Multiplier>, Sensible Heat Capacity Multiplier, Moisture Capacity Multiplier, Carbon Dioxide Capacity Multiplier, Generic Contaminant Capacity Multiplier
Zone Volume Capacitance Multiplier,   1.000 ,   1.000,   1.000,   1.000
! <Component Sizing Information>, Component Type, Component Name, Input Field Description, Value
 Component Sizing Information, AirTerminal:SingleDuct:VAV:Reheat, CONFERENCE_0_Z1_VAVTERMINAL, User-Specified Maximum Air Flow Rate [m3/s], 0.17037
 Component Sizing Information, AirTerminal:SingleDuct:VAV:Reheat, CONFERENCE_0_Z1_VAVTERMINAL, Design Size Constant Minimum Air Flow Fraction, 0.20000
 Component Sizing Information, AirTerminal:SingleDuct:VAV:Reheat, CONFERENCE_0_Z1_VAVTERMINAL, User-Specified Constant Minimum Air Flow Fraction, 0.20000
 Component Sizing Information, AirTerminal:SingleDuct:VAV:Reheat, CONFERENCE_0_Z1_VAVTERMINAL, Design Size Minimum Air Flow Rate [m3/s], 3.40740E-002
 Component Sizing Information, AirTerminal:SingleDuct:VAV:Reheat, CONFERENCE_0_Z1_VAVTERMINAL, Design Size Maximum Flow per Zone Floor Area during Reheat [m3/s-m2], 9.99995E-004
 Component Sizing Information, AirTerminal:SingleDuct:VAV:Reheat, CONFERENCE_0_Z1_VAVTERMINAL, Design Size Maximum Flow Fraction during Reheat [], 0.20000
 Component Sizing Information, AirTerminal:SingleDuct:VAV:Reheat, CONFERENCE_0_Z1_VAVTERMINAL, User-Specified Maximum Reheat Water Flow Rate [m3/s], 2.72592
 Component Sizing Information, Coil:Heating:Electric, CONFERENCE_0_Z1_REHEATCOIL, User-Specified Nominal Capacity [W], 817.77486
 Component Sizing Information, AirTerminal:SingleDuct:VAV:Reheat, OFFICE_PRIVATE_1_Z2_VAVTERMINAL, User-Specified Maximum Air Flow Rate [m3/s], 0.10424
 Component Sizing Information, AirTerminal:SingleDuct:VAV:Reheat, OFFICE_PRIVATE_1_Z2_VAVTERMINAL, Design Size Constant Minimum Air Flow Fraction, 0.20000
 Component Sizing Information, AirTerminal:SingleDuct:VAV:Reheat, OFFICE_PRIVATE_1_Z2_VAVTERMINAL, User-Specified Constant Minimum Air Flow Fraction, 0.20000
 Component Sizing Information, AirTerminal:SingleDuct:VAV:Reheat, OFFICE_PRIVATE_1_Z2_VAVTERMINAL, Design Size Minimum Air Flow Rate [m3/s], 2.08487E-002
 Component Sizing Information, AirTerminal:SingleDuct:VAV:Reheat, OFFICE_PRIVATE_1_Z2_VAVTERMINAL, Design Size Maximum Flow per Zone Floor Area during Reheat [m3/s-m2], 1.00001E-003
 Component Sizing Information, AirTerminal:SingleDuct:VAV:Reheat, OFFICE_PRIVATE_1_Z2_VAVTERMINAL, Design Size Maximum Flow Fraction during Reheat [], 0.20000
 Component Sizing Information, AirTerminal:SingleDuct:VAV:Reheat, OFFICE_PRIVATE_1_Z2_VAVTERMINAL, User-Specified Maximum Reheat Water Flow Rate [m3/s], 1.66789
 Component Sizing Information, Coil:Heating:Electric, OFFICE_PRIVATE_1_Z2_REHEATCOIL, User-Specified Nominal Capacity [W], 500.36782
 Component Sizing Information, AirTerminal:SingleDuct:VAV:Reheat, LOBBY_2_Z3_VAVTERMINAL, User-Specified Maximum Air Flow Rate [m3/s], 0.70400
 Component Sizing Information, AirTerminal:SingleDuct:VAV:Reheat, LOBBY_2_Z3_VAVTERMINAL, Design Size Constant Minimum Air Flow Fraction, 0.20000
 Component Sizing Information, AirTerminal:SingleDuct:VAV:Reheat, LOBBY_2_Z3_VAVTERMINAL, User-Specified Constant Minimum Air Flow Fraction, 0.20000
 Component Sizing Information, AirTerminal:SingleDuct:VAV:Reheat, LOBBY_2_Z3_VAVTERMINAL, Design Size Minimum Air Flow Rate [m3/s], 0.14080
 Component Sizing Information, AirTerminal:SingleDuct:VAV:Reheat, LOBBY_2_Z3_VAVTERMINAL, Design Size Maximum Flow per Zone Floor Area during Reheat [m3/s-m2], 1.00001E-003
 Component Sizing Information, AirTerminal:SingleDuct:VAV:Reheat, LOBBY_2_Z3_VAVTERMINAL, Design Size Maximum Flow Fraction during Reheat [], 0.20000
 Component Sizing Information, AirTerminal:SingleDuct:VAV:Reheat, LOBBY_2_Z3_VAVTERMINAL, User-Specified Maximum Reheat Water Flow Rate [m3/s], 11.26393
 Component Sizing Information, Coil:Heating:Electric, LOBBY_2_Z3_REHEATCOIL, User-Specified Nominal Capacity [W], 3379.18035
 Component Sizing Information, AirTerminal:SingleDuct:VAV:Reheat, CONFERENCE_3_Z4_VAVTERMINAL, User-Specified Maximum Air Flow Rate [m3/s], 0.39919
 Component Sizing Information, AirTerminal:SingleDuct:VAV:Reheat, CONFERENCE_3_Z4_VAVTERMINAL, Design Size Constant Minimum Air Flow Fraction, 0.20000
 Component Sizing Information, AirTerminal:SingleDuct:VAV:Reheat, CONFERENCE_3_Z4_VAVTERMINAL, User-Specified Constant Minimum Air Flow Fraction, 0.20000
 Component Sizing Information, AirTerminal:SingleDuct:VAV:Reheat, CONFERENCE_3_Z4_VAVTERMINAL, Design Size Minimum Air Flow Rate [m3/s], 7.98378E-002
 Component Sizing Information, AirTerminal:SingleDuct:VAV:Reheat, CONFERENCE_3_Z4_VAVTERMINAL, Design Size Maximum Flow per Zone Floor Area during Reheat [m3/s-m2], 9.99996E-004
 Component Sizing Information, AirTerminal:SingleDuct:VAV:Reheat, CONFERENCE_3_Z4_VAVTERMINAL, Design Size Maximum Flow Fraction during Reheat [], 0.20000
 Component Sizing Information, AirTerminal:SingleDuct:VAV:Reheat, CONFERENCE_3_Z4_VAVTERMINAL, User-Specified Maximum Reheat Water Flow Rate [m3/s], 6.38702
 Component Sizing Information, Coil:Heating:Electric, CONFERENCE_3_Z4_REHEATCOIL, User-Specified Nominal Capacity [W], 1916.10742
 Component Sizing Information, AirTerminal:SingleDuct:VAV:Reheat, MECHANICAL_3_Z5_VAVTERMINAL, User-Specified Maximum Air Flow Rate [m3/s], 0.18017
 Component Sizing Information, AirTerminal:SingleDuct:VAV:Reheat, MECHANICAL_3_Z5_VAVTERMINAL, Design Size Constant Minimum Air Flow Fraction, 0.20000
 Component Sizing Information, AirTerminal:SingleDuct:VAV:Reheat, MECHANICAL_3_Z5_VAVTERMINAL, User-Specified Constant Minimum Air Flow Fraction, 0.20000
 Component Sizing Information, AirTerminal:SingleDuct:VAV:Reheat, MECHANICAL_3_Z5_VAVTERMINAL, Design Size Minimum Air Flow Rate [m3/s], 3.60344E-002
 Component Sizing Information, AirTerminal:SingleDuct:VAV:Reheat, MECHANICAL_3_Z5_VAVTERMINAL, Design Size Maximum Flow per Zone Floor Area during Reheat [m3/s-m2], 1.00001E-003
 Component Sizing Information, AirTerminal:SingleDuct:VAV:Reheat, MECHANICAL_3_Z5_VAVTERMINAL, Design Size Maximum Flow Fraction during Reheat [], 0.20000
 Component Sizing Information, AirTerminal:SingleDuct:VAV:Reheat, MECHANICAL_3_Z5_VAVTERMINAL, User-Specified Maximum Reheat Water Flow Rate [m3/s], 2.88275
 Component Sizing Information, Coil:Heating:Electric, MECHANICAL_3_Z5_REHEATCOIL, User-Specified Nominal Capacity [W], 864.82570
 Component Sizing Information, AirTerminal:SingleDuct:VAV:Reheat, OFFICE_OPEN_3_Z6_VAVTERMINAL, User-Specified Maximum Air Flow Rate [m3/s], 1.83449
 Component Sizing Information, AirTerminal:SingleDuct:VAV:Reheat, OFFICE_OPEN_3_Z6_VAVTERMINAL, Design Size Constant Minimum Air Flow Fraction, 0.20000
 Component Sizing Information, AirTerminal:SingleDuct:VAV:Reheat, OFFICE_OPEN_3_Z6_VAVTERMINAL, User-Specified Constant Minimum Air Flow Fraction, 0.20000
 Component Sizing Information, AirTerminal:SingleDuct:VAV:Reheat, OFFICE_OPEN_3_Z6_VAVTERMINAL, Design Size Minimum Air Flow Rate [m3/s], 0.36690
 Component Sizing Information, AirTerminal:SingleDuct:VAV:Reheat, OFFICE_OPEN_3_Z6_VAVTERMINAL, Design Size Maximum Flow per Zone Floor Area during Reheat [m3/s-m2], 1.00000E-003
 Component Sizing Information, AirTerminal:SingleDuct:VAV:Reheat, OFFICE_OPEN_3_Z6_VAVTERMINAL, Design Size Maximum Flow Fraction during Reheat [], 0.20000
 Component Sizing Information, AirTerminal:SingleDuct:VAV:Reheat, OFFICE_OPEN_3_Z6_VAVTERMINAL, User-Specified Maximum Reheat Water Flow Rate [m3/s], 29.35188
 Component Sizing Information, Coil:Heating:Electric, OFFICE_OPEN_3_Z6_REHEATCOIL, User-Specified Nominal Capacity [W], 8805.56428
 Component Sizing Information, AirTerminal:SingleDuct:VAV:Reheat, LOBBY_4_Z7_VAVTERMINAL, User-Specified Maximum Air Flow Rate [m3/s], 0.67070
 Component Sizing Information, AirTerminal:SingleDuct:VAV:Reheat, LOBBY_4_Z7_VAVTERMINAL, Design Size Constant Minimum Air Flow Fraction, 0.20000
 Component Sizing Information, AirTerminal:SingleDuct:VAV:Reheat, LOBBY_4_Z7_VAVTERMINAL, User-Specified Constant Minimum Air Flow Fraction, 0.20000
 Component Sizing Information, AirTerminal:SingleDuct:VAV:Reheat, LOBBY_4_Z7_VAVTERMINAL, Design Size Minimum Air Flow Rate [m3/s], 0.13414
 Component Sizing Information, AirTerminal:SingleDuct:VAV:Reheat, LOBBY_4_Z7_VAVTERMINAL, Design Size Maximum Flow per Zone Floor Area during Reheat [m3/s-m2], 9.99989E-004
 Component Sizing Information, AirTerminal:SingleDuct:VAV:Reheat, LOBBY_4_Z7_VAVTERMINAL, Design Size Maximum Flow Fraction during Reheat [], 0.20000
 Component Sizing Information, AirTerminal:SingleDuct:VAV:Reheat, LOBBY_4_Z7_VAVTERMINAL, User-Specified Maximum Reheat Water Flow Rate [m3/s], 10.73126
 Component Sizing Information, Coil:Heating:Electric, LOBBY_4_Z7_REHEATCOIL, User-Specified Nominal Capacity [W], 3219.37721
 Component Sizing Information, AirTerminal:SingleDuct:VAV:Reheat, STORAGE_4_Z8_VAVTERMINAL, User-Specified Maximum Air Flow Rate [m3/s], 0.15161
 Component Sizing Information, AirTerminal:SingleDuct:VAV:Reheat, STORAGE_4_Z8_VAVTERMINAL, Design Size Constant Minimum Air Flow Fraction, 0.20000
 Component Sizing Information, AirTerminal:SingleDuct:VAV:Reheat, STORAGE_4_Z8_VAVTERMINAL, User-Specified Constant Minimum Air Flow Fraction, 0.20000
 Component Sizing Information, AirTerminal:SingleDuct:VAV:Reheat, STORAGE_4_Z8_VAVTERMINAL, Design Size Minimum Air Flow Rate [m3/s], 3.03215E-002
 Component Sizing Information, AirTerminal:SingleDuct:VAV:Reheat, STORAGE_4_Z8_VAVTERMINAL, Design Size Maximum Flow per Zone Floor Area during Reheat [m3/s-m2], 9.99999E-004
 Component Sizing Information, AirTerminal:SingleDuct:VAV:Reheat, STORAGE_4_Z8_VAVTERMINAL, Design Size Maximum Flow Fraction during Reheat [], 0.20000
 Component Sizing Information, AirTerminal:SingleDuct:VAV:Reheat, STORAGE_4_Z8_VAVTERMINAL, User-Specified Maximum Reheat Water Flow Rate [m3/s], 2.42572
 Component Sizing Information, Coil:Heating:Electric, STORAGE_4_Z8_REHEATCOIL, User-Specified Nominal Capacity [W], 727.71691
 Component Sizing Information, Coil:Cooling:DX:SingleSpeed, CONFERENCE_0_Z1_COOLINGCOILDX, User-Specified Rated Air Flow Rate [m3/s], 0.17037
 Component Sizing Information, Coil:Cooling:DX:SingleSpeed, CONFERENCE_0_Z1_COOLINGCOILDX, User-Specified Gross Rated Total Cooling Capacity [W], 3407.39526
 Component Sizing Information, Coil:Cooling:DX:SingleSpeed, CONFERENCE_0_Z1_COOLINGCOILDX, User-Specified Gross Rated Sensible Heat Ratio, 0.75000
! <DX Cooling Coil Standard Rating Information>, Component Type, Component Name, Standard Rating (Net) Cooling Capacity {W}, Standard Rating Net COP {W/W}, EER {Btu/W-h}, SEER User {Btu/W-h}, SEER Standard {Btu/W-h}, IEER {Btu/W-h}
 DX Cooling Coil Standard Rating Information, Coil:Cooling:DX:SingleSpeed, CONFERENCE_0_Z1_COOLINGCOILDX, 3275.1, 39.98, 136.43, 54.18, 51.26, 37.2
! <DX Cooling Coil AHRI 2023 Standard Rating Information>, Component Type, Component Name, Standard Rating (Net) Cooling Capacity {W}, Standard Rating Net COP2 {W/W}, EER2 {Btu/W-h}, SEER2 User {Btu/W-h}, SEER2 Standard {Btu/W-h}, IEER 2022 {Btu/W-h}
 DX Cooling Coil AHRI 2023 Standard Rating Information, Coil:Cooling:DX:SingleSpeed, CONFERENCE_0_Z1_COOLINGCOILDX, 3275.1, 39.98, 136.43, 54.18, 52.72, 37.2
 Component Sizing Information, Coil:Heating:Electric, CONFERENCE_0_Z1_HEATINGCOIL, User-Specified Nominal Capacity [W], 2725.91621
 Component Sizing Information, Fan:VariableVolume, CONFERENCE_0_Z1_SUPPLYFAN, User-Specified Maximum Flow Rate [m3/s], 0.17037
 Component Sizing Information, Fan:VariableVolume, CONFERENCE_0_Z1_SUPPLYFAN, Design Electric Power Consumption [W], 146.03123
 Component Sizing Information, Coil:Cooling:DX:SingleSpeed, OFFICE_PRIVATE_1_Z2_COOLINGCOILDX, User-Specified Rated Air Flow Rate [m3/s], 0.10424
 Component Sizing Information, Coil:Cooling:DX:SingleSpeed, OFFICE_PRIVATE_1_Z2_COOLINGCOILDX, User-Specified Gross Rated Total Cooling Capacity [W], 2084.86590
 Component Sizing Information, Coil:Cooling:DX:SingleSpeed, OFFICE_PRIVATE_1_Z2_COOLINGCOILDX, User-Specified Gross Rated Sensible Heat Ratio, 0.75000
 DX Cooling Coil Standard Rating Information, Coil:Cooling:DX:SingleSpeed, OFFICE_PRIVATE_1_Z2_COOLINGCOILDX, 2003.9, 39.98, 136.43, 54.18, 51.26, 37.2
 DX Cooling Coil AHRI 2023 Standard Rating Information, Coil:Cooling:DX:SingleSpeed, OFFICE_PRIVATE_1_Z2_COOLINGCOILDX, 2003.9, 39.98, 136.43, 54.18, 52.72, 37.2
 Component Sizing Information, Coil:Heating:Electric, OFFICE_PRIVATE_1_Z2_HEATINGCOIL, User-Specified Nominal Capacity [W], 1667.89272
 Component Sizing Information, Fan:VariableVolume, OFFICE_PRIVATE_1_Z2_SUPPLYFAN, User-Specified Maximum Flow Rate [m3/s], 0.10424
 Component Sizing Information, Fan:VariableVolume, OFFICE_PRIVATE_1_Z2_SUPPLYFAN, Design Electric Power Consumption [W], 89.35140
 Component Sizing Information, Coil:Cooling:DX:SingleSpeed, LOBBY_2_Z3_COOLINGCOILDX, User-Specified Rated Air Flow Rate [m3/s], 0.70400
 Component Sizing Information, Coil:Cooling:DX:SingleSpeed, LOBBY_2_Z3_COOLINGCOILDX, User-Specified Gross Rated Total Cooling Capacity [W], 14079.91813
 Component Sizing Information, Coil:Cooling:DX:SingleSpeed, LOBBY_2_Z3_COOLINGCOILDX, User-Specified Gross Rated Sensible Heat Ratio, 0.75000
 DX Cooling Coil Standard Rating Information, Coil:Cooling:DX:SingleSpeed, LOBBY_2_Z3_COOLINGCOILDX, 13533.3, 39.98, 136.43, 54.18, 51.26, 37.2
 DX Cooling Coil AHRI 2023 Standard Rating Information, Coil:Cooling:DX:SingleSpeed, LOBBY_2_Z3_COOLINGCOILDX, 13533.3, 39.98, 136.43, 54.18, 52.72, 37.2
 Component Sizing Information, Coil:Heating:Electric, LOBBY_2_Z3_HEATINGCOIL, User-Specified Nominal Capacity [W], 11263.93451
 Component Sizing Information, Fan:VariableVolume, LOBBY_2_Z3_SUPPLYFAN, User-Specified Maximum Flow Rate [m3/s], 0.70400
 Component Sizing Information, Fan:VariableVolume, LOBBY_2_Z3_SUPPLYFAN, Design Electric Power Consumption [W], 603.42506
 Component Sizing Information, Coil:Cooling:DX:SingleSpeed, CONFERENCE_3_Z4_COOLINGCOILDX, User-Specified Rated Air Flow Rate [m3/s], 0.39919
 Component Sizing Information, Coil:Cooling:DX:SingleSpeed, CONFERENCE_3_Z4_COOLINGCOILDX, User-Specified Gross Rated Total Cooling Capacity [W], 7983.78094
 Component Sizing Information, Coil:Cooling:DX:SingleSpeed, CONFERENCE_3_Z4_COOLINGCOILDX, User-Specified Gross Rated Sensible Heat Ratio, 0.75000
 DX Cooling Coil Standard Rating Information, Coil:Cooling:DX:SingleSpeed, CONFERENCE_3_Z4_COOLINGCOILDX, 7673.8, 39.98, 136.43, 54.18, 51.26, 37.2
 DX Cooling Coil AHRI 2023 Standard Rating Information, Coil:Cooling:DX:SingleSpeed, CONFERENCE_3_Z4_COOLINGCOILDX, 7673.8, 39.98, 136.43, 54.18, 52.72, 37.2
 Component Sizing Information, Coil:Heating:Electric, CONFERENCE_3_Z4_HEATINGCOIL, User-Specified Nominal Capacity [W], 6387.02475
 Component Sizing Information, Fan:VariableVolume, CONFERENCE_3_Z4_SUPPLYFAN, User-Specified Maximum Flow Rate [m3/s], 0.39919
 Component Sizing Information, Fan:VariableVolume, CONFERENCE_3_Z4_SUPPLYFAN, Design Electric Power Consumption [W], 342.16204
 Component Sizing Information, Coil:Cooling:DX:SingleSpeed, MECHANICAL_3_Z5_COOLINGCOILDX, User-Specified Rated Air Flow Rate [m3/s], 0.18017
 Component Sizing Information, Coil:Cooling:DX:SingleSpeed, MECHANICAL_3_Z5_COOLINGCOILDX, User-Specified Gross Rated Total Cooling Capacity [W], 3603.44041
 Component Sizing Information, Coil:Cooling:DX:SingleSpeed, MECHANICAL_3_Z5_COOLINGCOILDX, User-Specified Gross Rated Sensible Heat Ratio, 0.75000
 DX Cooling Coil Standard Rating Information, Coil:Cooling:DX:SingleSpeed, MECHANICAL_3_Z5_COOLINGCOILDX, 3463.5, 39.98, 136.43, 54.18, 51.26, 37.2
 DX Cooling Coil AHRI 2023 Standard Rating Information, Coil:Cooling:DX:SingleSpeed, MECHANICAL_3_Z5_COOLINGCOILDX, 3463.5, 39.98, 136.43, 54.18, 52.72, 37.2
 Component Sizing Information, Coil:Heating:Electric, MECHANICAL_3_Z5_HEATINGCOIL, User-Specified Nominal Capacity [W], 2882.75233
 Component Sizing Information, Fan:VariableVolume, MECHANICAL_3_Z5_SUPPLYFAN, User-Specified Maximum Flow Rate [m3/s], 0.18017
 Component Sizing Information, Fan:VariableVolume, MECHANICAL_3_Z5_SUPPLYFAN, Design Electric Power Consumption [W], 154.43316
 Component Sizing Information, Coil:Cooling:DX:SingleSpeed, OFFICE_OPEN_3_Z6_COOLINGCOILDX, User-Specified Rated Air Flow Rate [m3/s], 1.83449
 Component Sizing Information, Coil:Cooling:DX:SingleSpeed, OFFICE_OPEN_3_Z6_COOLINGCOILDX, User-Specified Gross Rated Total Cooling Capacity [W], 36689.85119
 Component Sizing Information, Coil:Cooling:DX:SingleSpeed, OFFICE_OPEN_3_Z6_COOLINGCOILDX, User-Specified Gross Rated Sensible Heat Ratio, 0.75000
 DX Cooling Coil Standard Rating Information, Coil:Cooling:DX:SingleSpeed, OFFICE_OPEN_3_Z6_COOLINGCOILDX, 35265.3, 39.98, 136.43, 54.18, 51.26, 37.2
 DX Cooling Coil AHRI 2023 Standard Rating Information, Coil:Cooling:DX:SingleSpeed, OFFICE_OPEN_3_Z6_COOLINGCOILDX, 35265.3, 39.98, 136.43, 54.18, 52.72, 37.2
 Component Sizing Information, Coil:Heating:Electric, OFFICE_OPEN_3_Z6_HEATINGCOIL, User-Specified Nominal Capacity [W], 29351.88095
 Component Sizing Information, Fan:VariableVolume, OFFICE_OPEN_3_Z6_SUPPLYFAN, User-Specified Maximum Flow Rate [m3/s], 1.83449
 Component Sizing Information, Fan:VariableVolume, OFFICE_OPEN_3_Z6_SUPPLYFAN, Design Electric Power Consumption [W], 1572.42219
 Component Sizing Information, Coil:Cooling:DX:SingleSpeed, LOBBY_4_Z7_COOLINGCOILDX, User-Specified Rated Air Flow Rate [m3/s], 0.67070
 Component Sizing Information, Coil:Cooling:DX:SingleSpeed, LOBBY_4_Z7_COOLINGCOILDX, User-Specified Gross Rated Total Cooling Capacity [W], 13414.07172
 Component Sizing Information, Coil:Cooling:DX:SingleSpeed, LOBBY_4_Z7_COOLINGCOILDX, User-Specified Gross Rated Sensible Heat Ratio, 0.75000
 DX Cooling Coil Standard Rating Information, Coil:Cooling:DX:SingleSpeed, LOBBY_4_Z7_COOLINGCOILDX, 12893.3, 39.98, 136.43, 54.18, 51.26, 37.2
 DX Cooling Coil AHRI 2023 Standard Rating Information, Coil:Cooling:DX:SingleSpeed, LOBBY_4_Z7_COOLINGCOILDX, 12893.3, 39.98, 136.43, 54.18, 52.72, 37.2
 Component Sizing Information, Coil:Heating:Electric, LOBBY_4_Z7_HEATINGCOIL, User-Specified Nominal Capacity [W], 10731.25738
 Component Sizing Information, Fan:VariableVolume, LOBBY_4_Z7_SUPPLYFAN, User-Specified Maximum Flow Rate [m3/s], 0.67070
 Component Sizing Information, Fan:VariableVolume, LOBBY_4_Z7_SUPPLYFAN, Design Electric Power Consumption [W], 574.88879
 Component Sizing Information, Coil:Cooling:DX:SingleSpeed, STORAGE_4_Z8_COOLINGCOILDX, User-Specified Rated Air Flow Rate [m3/s], 0.15161
 Component Sizing Information, Coil:Cooling:DX:SingleSpeed, STORAGE_4_Z8_COOLINGCOILDX, User-Specified Gross Rated Total Cooling Capacity [W], 3032.15378
 Component Sizing Information, Coil:Cooling:DX:SingleSpeed, STORAGE_4_Z8_COOLINGCOILDX, User-Specified Gross Rated Sensible Heat Ratio, 0.75000
 DX Cooling Coil Standard Rating Information, Coil:Cooling:DX:SingleSpeed, STORAGE_4_Z8_COOLINGCOILDX, 2914.4, 39.98, 136.43, 54.18, 51.26, 37.2
 DX Cooling Coil AHRI 2023 Standard Rating Information, Coil:Cooling:DX:SingleSpeed, STORAGE_4_Z8_COOLINGCOILDX, 2914.4, 39.98, 136.43, 54.18, 52.72, 37.2
 Component Sizing Information, Coil:Heating:Electric, STORAGE_4_Z8_HEATINGCOIL, User-Specified Nominal Capacity [W], 2425.72302
 Component Sizing Information, Fan:VariableVolume, STORAGE_4_Z8_SUPPLYFAN, User-Specified Maximum Flow Rate [m3/s], 0.15161
 Component Sizing Information, Fan:VariableVolume, STORAGE_4_Z8_SUPPLYFAN, Design Electric Power Consumption [W], 129.94945
! <Environment>,Environment Name,Environment Type, Start Date, End Date, Start DayOfWeek, Duration {#days}, Source:Start DayOfWeek,  Use Daylight Saving, Use Holidays, Apply Weekend Holiday Rule,  Use Rain Values, Use Snow Values, Sky Temperature Model
! <Environment:Special Days>, Special Day Name, Special Day Type, Source, Start Date, Duration {#days}
! <Environment:Daylight Saving>, Daylight Saving Indicator, Source, Start Date, End Date
! <Environment:WarmupDays>, NumberofWarmupDays
Environment,YEAR ROUND RUN PERIOD,WeatherFileRunPeriod,01/01/2017,12/31/2017,Sunday,365,Use RunPeriod Specified Day,Yes,Yes,Yes,Yes,Yes,Clark and Allen
Environment:Daylight Saving,No,
! <Sky Daylight Factors>, Sky Type, MonthAndDay, Daylighting Control Name, Enclosure Name, Window Name, Reference Point, Daylight Factor
 Sky Daylight Factors,Clear Sky,01/01,CONFERENCE_0_DAYLIGHT,CONFERENCE_0,CONFERENCE_0_WINDOW_1,CONFERENCE_0_REFERENCEPOINT1,6.2578E-003
 Sky Daylight Factors,Clear Turbid Sky,01/01,CONFERENCE_0_DAYLIGHT,CONFERENCE_0,CONFERENCE_0_WINDOW_1,CONFERENCE_0_REFERENCEPOINT1,7.0048E-003
 Sky Daylight Factors,Intermediate Sky,01/01,CONFERENCE_0_DAYLIGHT,CONFERENCE_0,CONFERENCE_0_WINDOW_1,CONFERENCE_0_REFERENCEPOINT1,4.1613E-003
 Sky Daylight Factors,Overcast Sky,01/01,CONFERENCE_0_DAYLIGHT,CONFERENCE_0,CONFERENCE_0_WINDOW_1,CONFERENCE_0_REFERENCEPOINT1,2.1307E-003
 Sky Daylight Factors,Clear Sky,01/01,CONFERENCE_0_DAYLIGHT,CONFERENCE_0,CONFERENCE_0_WINDOW_2,CONFERENCE_0_REFERENCEPOINT1,7.7934E-003
 Sky Daylight Factors,Clear Turbid Sky,01/01,CONFERENCE_0_DAYLIGHT,CONFERENCE_0,CONFERENCE_0_WINDOW_2,CONFERENCE_0_REFERENCEPOINT1,7.2918E-003
 Sky Daylight Factors,Intermediate Sky,01/01,CONFERENCE_0_DAYLIGHT,CONFERENCE_0,CONFERENCE_0_WINDOW_2,CONFERENCE_0_REFERENCEPOINT1,7.3452E-003
 Sky Daylight Factors,Overcast Sky,01/01,CONFERENCE_0_DAYLIGHT,CONFERENCE_0,CONFERENCE_0_WINDOW_2,CONFERENCE_0_REFERENCEPOINT1,6.3247E-003
 Sky Daylight Factors,Clear Sky,01/01,CONFERENCE_0_DAYLIGHT,CONFERENCE_0,CONFERENCE_0_WINDOW_3,CONFERENCE_0_REFERENCEPOINT1,4.6982E-003
 Sky Daylight Factors,Clear Turbid Sky,01/01,CONFERENCE_0_DAYLIGHT,CONFERENCE_0,CONFERENCE_0_WINDOW_3,CONFERENCE_0_REFERENCEPOINT1,3.8235E-003
 Sky Daylight Factors,Intermediate Sky,01/01,CONFERENCE_0_DAYLIGHT,CONFERENCE_0,CONFERENCE_0_WINDOW_3,CONFERENCE_0_REFERENCEPOINT1,3.4908E-003
 Sky Daylight Factors,Overcast Sky,01/01,CONFERENCE_0_DAYLIGHT,CONFERENCE_0,CONFERENCE_0_WINDOW_3,CONFERENCE_0_REFERENCEPOINT1,4.9490E-003
 Sky Daylight Factors,Clear Sky,01/01,CONFERENCE_0_DAYLIGHT,CONFERENCE_0,CONFERENCE_0_WINDOW_4,CONFERENCE_0_REFERENCEPOINT1,6.1097E-003
 Sky Daylight Factors,Clear Turbid Sky,01/01,CONFERENCE_0_DAYLIGHT,CONFERENCE_0,CONFERENCE_0_WINDOW_4,CONFERENCE_0_REFERENCEPOINT1,5.6864E-003
 Sky Daylight Factors,Intermediate Sky,01/01,CONFERENCE_0_DAYLIGHT,CONFERENCE_0,CONFERENCE_0_WINDOW_4,CONFERENCE_0_REFERENCEPOINT1,6.2093E-003
 Sky Daylight Factors,Overcast Sky,01/01,CONFERENCE_0_DAYLIGHT,CONFERENCE_0,CONFERENCE_0_WINDOW_4,CONFERENCE_0_REFERENCEPOINT1,5.5431E-003
 Sky Daylight Factors,Clear Sky,01/01,OFFICE_PRIVATE_1_DAYLIGHT,OFFICE_PRIVATE_1,OFFICE_PRIVATE_1_WINDOW_1,OFFICE_PRIVATE_1_REFERENCEPOINT1,7.4081E-003
 Sky Daylight Factors,Clear Turbid Sky,01/01,OFFICE_PRIVATE_1_DAYLIGHT,OFFICE_PRIVATE_1,OFFICE_PRIVATE_1_WINDOW_1,OFFICE_PRIVATE_1_REFERENCEPOINT1,8.1567E-003
 Sky Daylight Factors,Intermediate Sky,01/01,OFFICE_PRIVATE_1_DAYLIGHT,OFFICE_PRIVATE_1,OFFICE_PRIVATE_1_WINDOW_1,OFFICE_PRIVATE_1_REFERENCEPOINT1,5.1084E-003
 Sky Daylight Factors,Overcast Sky,01/01,OFFICE_PRIVATE_1_DAYLIGHT,OFFICE_PRIVATE_1,OFFICE_PRIVATE_1_WINDOW_1,OFFICE_PRIVATE_1_REFERENCEPOINT1,2.7184E-003
 Sky Daylight Factors,Clear Sky,01/01,OFFICE_PRIVATE_1_DAYLIGHT,OFFICE_PRIVATE_1,OFFICE_PRIVATE_1_WINDOW_2,OFFICE_PRIVATE_1_REFERENCEPOINT1,7.4967E-003
 Sky Daylight Factors,Clear Turbid Sky,01/01,OFFICE_PRIVATE_1_DAYLIGHT,OFFICE_PRIVATE_1,OFFICE_PRIVATE_1_WINDOW_2,OFFICE_PRIVATE_1_REFERENCEPOINT1,7.0107E-003
 Sky Daylight Factors,Intermediate Sky,01/01,OFFICE_PRIVATE_1_DAYLIGHT,OFFICE_PRIVATE_1,OFFICE_PRIVATE_1_WINDOW_2,OFFICE_PRIVATE_1_REFERENCEPOINT1,7.0625E-003
 Sky Daylight Factors,Overcast Sky,01/01,OFFICE_PRIVATE_1_DAYLIGHT,OFFICE_PRIVATE_1,OFFICE_PRIVATE_1_WINDOW_2,OFFICE_PRIVATE_1_REFERENCEPOINT1,6.0740E-003
 Sky Daylight Factors,Clear Sky,01/01,OFFICE_PRIVATE_1_DAYLIGHT,OFFICE_PRIVATE_1,OFFICE_PRIVATE_1_WINDOW_3,OFFICE_PRIVATE_1_REFERENCEPOINT1,5.2295E-003
 Sky Daylight Factors,Clear Turbid Sky,01/01,OFFICE_PRIVATE_1_DAYLIGHT,OFFICE_PRIVATE_1,OFFICE_PRIVATE_1_WINDOW_3,OFFICE_PRIVATE_1_REFERENCEPOINT1,4.2831E-003
 Sky Daylight Factors,Intermediate Sky,01/01,OFFICE_PRIVATE_1_DAYLIGHT,OFFICE_PRIVATE_1,OFFICE_PRIVATE_1_WINDOW_3,OFFICE_PRIVATE_1_REFERENCEPOINT1,4.0859E-003
 Sky Daylight Factors,Overcast Sky,01/01,OFFICE_PRIVATE_1_DAYLIGHT,OFFICE_PRIVATE_1,OFFICE_PRIVATE_1_WINDOW_3,OFFICE_PRIVATE_1_REFERENCEPOINT1,5.8377E-003
 Sky Daylight Factors,Clear Sky,01/01,OFFICE_PRIVATE_1_DAYLIGHT,OFFICE_PRIVATE_1,OFFICE_PRIVATE_1_WINDOW_4,OFFICE_PRIVATE_1_REFERENCEPOINT1,7.0710E-003
 Sky Daylight Factors,Clear Turbid Sky,01/01,OFFICE_PRIVATE_1_DAYLIGHT,OFFICE_PRIVATE_1,OFFICE_PRIVATE_1_WINDOW_4,OFFICE_PRIVATE_1_REFERENCEPOINT1,6.6958E-003
 Sky Daylight Factors,Intermediate Sky,01/01,OFFICE_PRIVATE_1_DAYLIGHT,OFFICE_PRIVATE_1,OFFICE_PRIVATE_1_WINDOW_4,OFFICE_PRIVATE_1_REFERENCEPOINT1,6.9614E-003
 Sky Daylight Factors,Overcast Sky,01/01,OFFICE_PRIVATE_1_DAYLIGHT,OFFICE_PRIVATE_1,OFFICE_PRIVATE_1_WINDOW_4,OFFICE_PRIVATE_1_REFERENCEPOINT1,5.9681E-003
 Sky Daylight Factors,Clear Sky,01/01,LOBBY_2_DAYLIGHT,LOBBY_2,LOBBY_2_WINDOW_1,LOBBY_2_REFERENCEPOINT1,5.0560E-003
 Sky Daylight Factors,Clear Turbid Sky,01/01,LOBBY_2_DAYLIGHT,LOBBY_2,LOBBY_2_WINDOW_1,LOBBY_2_REFERENCEPOINT1,5.6399E-003
 Sky Daylight Factors,Intermediate Sky,01/01,LOBBY_2_DAYLIGHT,LOBBY_2,LOBBY_2_WINDOW_1,LOBBY_2_REFERENCEPOINT1,3.5854E-003
 Sky Daylight Factors,Overcast Sky,01/01,LOBBY_2_DAYLIGHT,LOBBY_2,LOBBY_2_WINDOW_1,LOBBY_2_REFERENCEPOINT1,1.8720E-003
 Sky Daylight Factors,Clear Sky,01/01,LOBBY_2_DAYLIGHT,LOBBY_2,LOBBY_2_WINDOW_2,LOBBY_2_REFERENCEPOINT1,3.9150E-003
 Sky Daylight Factors,Clear Turbid Sky,01/01,LOBBY_2_DAYLIGHT,LOBBY_2,LOBBY_2_WINDOW_2,LOBBY_2_REFERENCEPOINT1,3.6149E-003
 Sky Daylight Factors,Intermediate Sky,01/01,LOBBY_2_DAYLIGHT,LOBBY_2,LOBBY_2_WINDOW_2,LOBBY_2_REFERENCEPOINT1,3.4211E-003
 Sky Daylight Factors,Overcast Sky,01/01,LOBBY_2_DAYLIGHT,LOBBY_2,LOBBY_2_WINDOW_2,LOBBY_2_REFERENCEPOINT1,2.7411E-003
 Sky Daylight Factors,Clear Sky,01/01,LOBBY_2_DAYLIGHT,LOBBY_2,LOBBY_2_WINDOW_3,LOBBY_2_REFERENCEPOINT1,3.6273E-003
 Sky Daylight Factors,Clear Turbid Sky,01/01,LOBBY_2_DAYLIGHT,LOBBY_2,LOBBY_2_WINDOW_3,LOBBY_2_REFERENCEPOINT1,2.9524E-003
 Sky Daylight Factors,Intermediate Sky,01/01,LOBBY_2_DAYLIGHT,LOBBY_2,LOBBY_2_WINDOW_3,LOBBY_2_REFERENCEPOINT1,2.6480E-003
 Sky Daylight Factors,Overcast Sky,01/01,LOBBY_2_DAYLIGHT,LOBBY_2,LOBBY_2_WINDOW_3,LOBBY_2_REFERENCEPOINT1,3.6605E-003
 Sky Daylight Factors,Clear Sky,01/01,LOBBY_2_DAYLIGHT,LOBBY_2,LOBBY_2_WINDOW_4,LOBBY_2_REFERENCEPOINT1,5.2821E-003
 Sky Daylight Factors,Clear Turbid Sky,01/01,LOBBY_2_DAYLIGHT,LOBBY_2,LOBBY_2_WINDOW_4,LOBBY_2_REFERENCEPOINT1,4.9573E-003
 Sky Daylight Factors,Intermediate Sky,01/01,LOBBY_2_DAYLIGHT,LOBBY_2,LOBBY_2_WINDOW_4,LOBBY_2_REFERENCEPOINT1,4.9780E-003
 Sky Daylight Factors,Overcast Sky,01/01,LOBBY_2_DAYLIGHT,LOBBY_2,LOBBY_2_WINDOW_4,LOBBY_2_REFERENCEPOINT1,4.2801E-003
 Sky Daylight Factors,Clear Sky,01/01,CONFERENCE_3_DAYLIGHT,CONFERENCE_3,CONFERENCE_3_WINDOW_1,CONFERENCE_3_REFERENCEPOINT1,6.7849E-003
 Sky Daylight Factors,Clear Turbid Sky,01/01,CONFERENCE_3_DAYLIGHT,CONFERENCE_3,CONFERENCE_3_WINDOW_1,CONFERENCE_3_REFERENCEPOINT1,7.5531E-003
 Sky Daylight Factors,Intermediate Sky,01/01,CONFERENCE_3_DAYLIGHT,CONFERENCE_3,CONFERENCE_3_WINDOW_1,CONFERENCE_3_REFERENCEPOINT1,4.8251E-003
 Sky Daylight Factors,Overcast Sky,01/01,CONFERENCE_3_DAYLIGHT,CONFERENCE_3,CONFERENCE_3_WINDOW_1,CONFERENCE_3_REFERENCEPOINT1,2.5227E-003
 Sky Daylight Factors,Clear Sky,01/01,CONFERENCE_3_DAYLIGHT,CONFERENCE_3,CONFERENCE_3_WINDOW_2,CONFERENCE_3_REFERENCEPOINT1,4.6019E-003
 Sky Daylight Factors,Clear Turbid Sky,01/01,CONFERENCE_3_DAYLIGHT,CONFERENCE_3,CONFERENCE_3_WINDOW_2,CONFERENCE_3_REFERENCEPOINT1,4.4047E-003
 Sky Daylight Factors,Intermediate Sky,01/01,CONFERENCE_3_DAYLIGHT,CONFERENCE_3,CONFERENCE_3_WINDOW_2,CONFERENCE_3_REFERENCEPOINT1,4.5848E-003
 Sky Daylight Factors,Overcast Sky,01/01,CONFERENCE_3_DAYLIGHT,CONFERENCE_3,CONFERENCE_3_WINDOW_2,CONFERENCE_3_REFERENCEPOINT1,3.8661E-003
 Sky Daylight Factors,Clear Sky,01/01,CONFERENCE_3_DAYLIGHT,CONFERENCE_3,CONFERENCE_3_WINDOW_3,CONFERENCE_3_REFERENCEPOINT1,4.6291E-003
 Sky Daylight Factors,Clear Turbid Sky,01/01,CONFERENCE_3_DAYLIGHT,CONFERENCE_3,CONFERENCE_3_WINDOW_3,CONFERENCE_3_REFERENCEPOINT1,3.7546E-003
 Sky Daylight Factors,Intermediate Sky,01/01,CONFERENCE_3_DAYLIGHT,CONFERENCE_3,CONFERENCE_3_WINDOW_3,CONFERENCE_3_REFERENCEPOINT1,3.3667E-003
 Sky Daylight Factors,Overcast Sky,01/01,CONFERENCE_3_DAYLIGHT,CONFERENCE_3,CONFERENCE_3_WINDOW_3,CONFERENCE_3_REFERENCEPOINT1,4.7218E-003
 Sky Daylight Factors,Clear Sky,01/01,CONFERENCE_3_DAYLIGHT,CONFERENCE_3,CONFERENCE_3_WINDOW_4,CONFERENCE_3_REFERENCEPOINT1,5.6266E-003
 Sky Daylight Factors,Clear Turbid Sky,01/01,CONFERENCE_3_DAYLIGHT,CONFERENCE_3,CONFERENCE_3_WINDOW_4,CONFERENCE_3_REFERENCEPOINT1,5.2811E-003
 Sky Daylight Factors,Intermediate Sky,01/01,CONFERENCE_3_DAYLIGHT,CONFERENCE_3,CONFERENCE_3_WINDOW_4,CONFERENCE_3_REFERENCEPOINT1,5.3032E-003
 Sky Daylight Factors,Overcast Sky,01/01,CONFERENCE_3_DAYLIGHT,CONFERENCE_3,CONFERENCE_3_WINDOW_4,CONFERENCE_3_REFERENCEPOINT1,4.5607E-003
 Sky Daylight Factors,Clear Sky,01/01,OFFICE_OPEN_3_DAYLIGHT,OFFICE_OPEN_3,OFFICE_OPEN_3_WINDOW_1,OFFICE_OPEN_3_REFERENCEPOINT1,4.6011E-003
 Sky Daylight Factors,Clear Turbid Sky,01/01,OFFICE_OPEN_3_DAYLIGHT,OFFICE_OPEN_3,OFFICE_OPEN_3_WINDOW_1,OFFICE_OPEN_3_REFERENCEPOINT1,5.1240E-003
 Sky Daylight Factors,Intermediate Sky,01/01,OFFICE_OPEN_3_DAYLIGHT,OFFICE_OPEN_3,OFFICE_OPEN_3_WINDOW_1,OFFICE_OPEN_3_REFERENCEPOINT1,3.2670E-003
 Sky Daylight Factors,Overcast Sky,01/01,OFFICE_OPEN_3_DAYLIGHT,OFFICE_OPEN_3,OFFICE_OPEN_3_WINDOW_1,OFFICE_OPEN_3_REFERENCEPOINT1,1.6998E-003
 Sky Daylight Factors,Clear Sky,01/01,OFFICE_OPEN_3_DAYLIGHT,OFFICE_OPEN_3,OFFICE_OPEN_3_WINDOW_2,OFFICE_OPEN_3_REFERENCEPOINT1,3.0953E-003
 Sky Daylight Factors,Clear Turbid Sky,01/01,OFFICE_OPEN_3_DAYLIGHT,OFFICE_OPEN_3,OFFICE_OPEN_3_WINDOW_2,OFFICE_OPEN_3_REFERENCEPOINT1,2.8991E-003
 Sky Daylight Factors,Intermediate Sky,01/01,OFFICE_OPEN_3_DAYLIGHT,OFFICE_OPEN_3,OFFICE_OPEN_3_WINDOW_2,OFFICE_OPEN_3_REFERENCEPOINT1,2.9200E-003
 Sky Daylight Factors,Overcast Sky,01/01,OFFICE_OPEN_3_DAYLIGHT,OFFICE_OPEN_3,OFFICE_OPEN_3_WINDOW_2,OFFICE_OPEN_3_REFERENCEPOINT1,2.5209E-003
 Sky Daylight Factors,Clear Sky,01/01,OFFICE_OPEN_3_DAYLIGHT,OFFICE_OPEN_3,OFFICE_OPEN_3_WINDOW_3,OFFICE_OPEN_3_REFERENCEPOINT1,3.2659E-003
 Sky Daylight Factors,Clear Turbid Sky,01/01,OFFICE_OPEN_3_DAYLIGHT,OFFICE_OPEN_3,OFFICE_OPEN_3_WINDOW_3,OFFICE_OPEN_3_REFERENCEPOINT1,2.6564E-003
 Sky Daylight Factors,Intermediate Sky,01/01,OFFICE_OPEN_3_DAYLIGHT,OFFICE_OPEN_3,OFFICE_OPEN_3_WINDOW_3,OFFICE_OPEN_3_REFERENCEPOINT1,2.3819E-003
 Sky Daylight Factors,Overcast Sky,01/01,OFFICE_OPEN_3_DAYLIGHT,OFFICE_OPEN_3,OFFICE_OPEN_3_WINDOW_3,OFFICE_OPEN_3_REFERENCEPOINT1,3.2963E-003
 Sky Daylight Factors,Clear Sky,01/01,OFFICE_OPEN_3_DAYLIGHT,OFFICE_OPEN_3,OFFICE_OPEN_3_WINDOW_4,OFFICE_OPEN_3_REFERENCEPOINT1,2.7654E-003
 Sky Daylight Factors,Clear Turbid Sky,01/01,OFFICE_OPEN_3_DAYLIGHT,OFFICE_OPEN_3,OFFICE_OPEN_3_WINDOW_4,OFFICE_OPEN_3_REFERENCEPOINT1,2.5565E-003
 Sky Daylight Factors,Intermediate Sky,01/01,OFFICE_OPEN_3_DAYLIGHT,OFFICE_OPEN_3,OFFICE_OPEN_3_WINDOW_4,OFFICE_OPEN_3_REFERENCEPOINT1,2.6993E-003
 Sky Daylight Factors,Overcast Sky,01/01,OFFICE_OPEN_3_DAYLIGHT,OFFICE_OPEN_3,OFFICE_OPEN_3_WINDOW_4,OFFICE_OPEN_3_REFERENCEPOINT1,2.3961E-003
 Sky Daylight Factors,Clear Sky,01/01,LOBBY_4_DAYLIGHT,LOBBY_4,LOBBY_4_WINDOW_1,LOBBY_4_REFERENCEPOINT1,4.6921E-003
 Sky Daylight Factors,Clear Turbid Sky,01/01,LOBBY_4_DAYLIGHT,LOBBY_4,LOBBY_4_WINDOW_1,LOBBY_4_REFERENCEPOINT1,5.2271E-003
 Sky Daylight Factors,Intermediate Sky,01/01,LOBBY_4_DAYLIGHT,LOBBY_4,LOBBY_4_WINDOW_1,LOBBY_4_REFERENCEPOINT1,3.3273E-003
 Sky Daylight Factors,Overcast Sky,01/01,LOBBY_4_DAYLIGHT,LOBBY_4,LOBBY_4_WINDOW_1,LOBBY_4_REFERENCEPOINT1,1.7239E-003
 Sky Daylight Factors,Clear Sky,01/01,LOBBY_4_DAYLIGHT,LOBBY_4,LOBBY_4_WINDOW_2,LOBBY_4_REFERENCEPOINT1,5.7339E-003
 Sky Daylight Factors,Clear Turbid Sky,01/01,LOBBY_4_DAYLIGHT,LOBBY_4,LOBBY_4_WINDOW_2,LOBBY_4_REFERENCEPOINT1,5.3694E-003
 Sky Daylight Factors,Intermediate Sky,01/01,LOBBY_4_DAYLIGHT,LOBBY_4,LOBBY_4_WINDOW_2,LOBBY_4_REFERENCEPOINT1,5.4083E-003
 Sky Daylight Factors,Overcast Sky,01/01,LOBBY_4_DAYLIGHT,LOBBY_4,LOBBY_4_WINDOW_2,LOBBY_4_REFERENCEPOINT1,4.6669E-003
 Sky Daylight Factors,Clear Sky,01/01,LOBBY_4_DAYLIGHT,LOBBY_4,LOBBY_4_WINDOW_3,LOBBY_4_REFERENCEPOINT1,3.3522E-003
 Sky Daylight Factors,Clear Turbid Sky,01/01,LOBBY_4_DAYLIGHT,LOBBY_4,LOBBY_4_WINDOW_3,LOBBY_4_REFERENCEPOINT1,2.7288E-003
 Sky Daylight Factors,Intermediate Sky,01/01,LOBBY_4_DAYLIGHT,LOBBY_4,LOBBY_4_WINDOW_3,LOBBY_4_REFERENCEPOINT1,2.4480E-003
 Sky Daylight Factors,Overcast Sky,01/01,LOBBY_4_DAYLIGHT,LOBBY_4,LOBBY_4_WINDOW_3,LOBBY_4_REFERENCEPOINT1,3.3833E-003
 Sky Daylight Factors,Clear Sky,01/01,LOBBY_4_DAYLIGHT,LOBBY_4,LOBBY_4_WINDOW_4,LOBBY_4_REFERENCEPOINT1,5.5300E-003
 Sky Daylight Factors,Clear Turbid Sky,01/01,LOBBY_4_DAYLIGHT,LOBBY_4,LOBBY_4_WINDOW_4,LOBBY_4_REFERENCEPOINT1,5.1739E-003
 Sky Daylight Factors,Intermediate Sky,01/01,LOBBY_4_DAYLIGHT,LOBBY_4,LOBBY_4_WINDOW_4,LOBBY_4_REFERENCEPOINT1,5.1966E-003
 Sky Daylight Factors,Overcast Sky,01/01,LOBBY_4_DAYLIGHT,LOBBY_4,LOBBY_4_WINDOW_4,LOBBY_4_REFERENCEPOINT1,4.4312E-003
Environment:WarmupDays,  7
! <Warmup Convergence Information>,Zone Name,Environment Type/Name,Average Warmup Temperature Difference {deltaC},Std Dev Warmup Temperature Difference {deltaC},Max Temperature Pass/Fail Convergence,Min Temperature Pass/Fail Convergence,Average Warmup Load Difference {W},Std Dev Warmup Load Difference {W},Heating Load Pass/Fail Convergence,Cooling Load Pass/Fail Convergence
 Warmup Convergence Information,CONFERENCE_0,RunPeriod: YEAR ROUND RUN PERIOD,0.1190353708,0.1352870815,Pass,Pass,1.5511052935E-002,1.8285809148E-002,Pass,Pass
 Warmup Convergence Information,OFFICE_PRIVATE_1,RunPeriod: YEAR ROUND RUN PERIOD,0.1517472621,0.1662163109,Pass,Pass,1.6567093779E-002,1.8931428907E-002,Pass,Pass
 Warmup Convergence Information,LOBBY_2,RunPeriod: YEAR ROUND RUN PERIOD,5.0212840892E-002,5.8471522596E-002,Pass,Pass,8.3520559661E-003,9.9117790584E-003,Pass,Pass
 Warmup Convergence Information,CONFERENCE_3,RunPeriod: YEAR ROUND RUN PERIOD,7.3533602047E-002,8.4170276201E-002,Pass,Pass,1.2239112126E-002,1.4362860117E-002,Pass,Pass
 Warmup Convergence Information,MECHANICAL_3,RunPeriod: YEAR ROUND RUN PERIOD,0.1310553478,0.1469670337,Pass,Pass,1.2238934933E-002,1.4057669976E-002,Pass,Pass
 Warmup Convergence Information,OFFICE_OPEN_3,RunPeriod: YEAR ROUND RUN PERIOD,3.0061176335E-002,3.2115498647E-002,Pass,Pass,8.5926182516E-003,9.2553930865E-003,Pass,Pass
 Warmup Convergence Information,LOBBY_4,RunPeriod: YEAR ROUND RUN PERIOD,5.3508749326E-002,6.2382222804E-002,Pass,Pass,8.4120848270E-003,9.9846491594E-003,Pass,Pass
 Warmup Convergence Information,STORAGE_4,RunPeriod: YEAR ROUND RUN PERIOD,0.1415594638,0.1608026062,Pass,Pass,1.2911840702E-002,1.5095133124E-002,Pass,Pass
! <Program Control Information:Threads/Parallel Sims>, Threading Supported,Maximum Number of Threads, Env Set Threads (OMP_NUM_THREADS), EP Env Set Threads (EP_OMP_NUM_THREADS), IDF Set Threads, Number of Threads Used (Interior Radiant Exchange), Number Nominal Surfaces, Number Parallel Sims
Program Control:Threads/Parallel Sims, No,1, N/A, N/A, N/A, N/A, N/A, N/A
End of Data
