Program Version,EnergyPlus, Version 24.2.0-94a887817b, YMD=2025.10.31 21:40
