Program Version,EnergyPlus, Version 24.2.0-94a887817b, YMD=2025.11.02 18:22
! <Version>, Version ID
 Version, 24.2.0
! <Timesteps per Hour>, #TimeSteps, Minutes per TimeStep {minutes}
 Timesteps per Hour,  4, 15
! <System Convergence Limits>, Minimum System TimeStep {minutes}, Max HVAC Iterations, Minimum Plant Iterations, Maximum Plant Iterations
 System Convergence Limits, 1, 20, 2, 8
! <Simulation Control>, Do Zone Sizing, Do System Sizing, Do Plant Sizing, Do Design Days, Do Weather Simulation, Do HVAC Sizing Simulation
 Simulation Control, No, No, No, No, Yes, No
! <Performance Precision Tradeoffs>, Use Coil Direct Simulation, Zone Radiant Exchange Algorithm, Override Mode, Number of Timestep In Hour, Force Euler Method, Minimum Number of Warmup Days, Force Suppress All Begin Environment Resets, Minimum System Timestep, MaxZoneTempDiff, MaxAllowedDelTemp
 Performance Precision Tradeoffs, No, ScriptF, Normal, 4, No, 1, No, 1.0, 0.300, 2.0000E-003
! <Output Reporting Tolerances>, Tolerance for Time Heating Setpoint Not Met, Tolerance for Zone Cooling Setpoint Not Met Time
 Output Reporting Tolerances, 0.200, 0.200, 
! <Site:GroundTemperature:BuildingSurface>,Jan{C},Feb{C},Mar{C},Apr{C},May{C},Jun{C},Jul{C},Aug{C},Sep{C},Oct{C},Nov{C},Dec{C}
 Site:GroundTemperature:BuildingSurface,  13.00,  12.00,  11.00,  10.00,  11.00,  13.00,  15.00,  16.00,  16.00,  15.00,  14.00,  13.00
! <Site:GroundTemperature:FCfactorMethod>,Jan{C},Feb{C},Mar{C},Apr{C},May{C},Jun{C},Jul{C},Aug{C},Sep{C},Oct{C},Nov{C},Dec{C}
 Site:GroundTemperature:FCfactorMethod,  -1.89,  -3.06,  -0.99,   2.23,  10.68,  17.20,  21.60,  22.94,  20.66,  15.60,   8.83,   2.56
! <Site:GroundTemperature:Shallow>,Jan{C},Feb{C},Mar{C},Apr{C},May{C},Jun{C},Jul{C},Aug{C},Sep{C},Oct{C},Nov{C},Dec{C}
 Site:GroundTemperature:Shallow,  11.00,  10.00,   9.00,   8.00,   9.00,  11.00,  13.00,  14.00,  14.00,  13.00,  12.00,  11.00
! <Site:GroundTemperature:Deep>,Jan{C},Feb{C},Mar{C},Apr{C},May{C},Jun{C},Jul{C},Aug{C},Sep{C},Oct{C},Nov{C},Dec{C}
 Site:GroundTemperature:Deep,   9.00,   8.00,   7.00,   6.00,   7.00,   9.00,  11.00,  12.00,  12.00,  11.00,  10.00,   9.00
! <Site:GroundReflectance>,Jan{dimensionless},Feb{dimensionless},Mar{dimensionless},Apr{dimensionless},May{dimensionless},Jun{dimensionless},Jul{dimensionless},Aug{dimensionless},Sep{dimensionless},Oct{dimensionless},Nov{dimensionless},Dec{dimensionless}
 Site:GroundReflectance,  0.20,  0.20,  0.20,  0.20,  0.20,  0.20,  0.20,  0.20,  0.20,  0.20,  0.20,  0.20
! <Site:GroundReflectance:SnowModifier>, Normal, Daylighting {dimensionless}
 Site:GroundReflectance:SnowModifier,   1.000,   1.000
! <Site:GroundReflectance:Snow>,Jan{dimensionless},Feb{dimensionless},Mar{dimensionless},Apr{dimensionless},May{dimensionless},Jun{dimensionless},Jul{dimensionless},Aug{dimensionless},Sep{dimensionless},Oct{dimensionless},Nov{dimensionless},Dec{dimensionless}
 Site:GroundReflectance:Snow,  0.20,  0.20,  0.20,  0.20,  0.20,  0.20,  0.20,  0.20,  0.20,  0.20,  0.20,  0.20
! <Site:GroundReflectance:Snow:Daylighting>,Jan{dimensionless},Feb{dimensionless},Mar{dimensionless},Apr{dimensionless},May{dimensionless},Jun{dimensionless},Jul{dimensionless},Aug{dimensionless},Sep{dimensionless},Oct{dimensionless},Nov{dimensionless},Dec{dimensionless}
 Site:GroundReflectance:Snow:Daylighting,  0.20,  0.20,  0.20,  0.20,  0.20,  0.20,  0.20,  0.20,  0.20,  0.20,  0.20,  0.20
! <Environment:Weather Station>,Wind Sensor Height Above Ground {m},Wind Speed Profile Exponent {},Wind Speed Profile Boundary Layer Thickness {m},Air Temperature Sensor Height Above Ground {m},Wind Speed Modifier Coefficient-Internal,Temperature Modifier Coefficient-Internal
Environment:Weather Station,10.000,0.140,270.000,1.500,1.586,9.750E-003
! <Site:Location>, Location Name, Latitude {N+/S- Deg}, Longitude {E+/W- Deg},  Time Zone Number {GMT+/-}, Elevation {m},  Standard Pressure at Elevation {Pa}, Standard RhoAir at Elevation
Site:Location,Chicago Ohare Intl Ap IL USA TMY3 WMO#=725300,41.98,-87.92,-6.00,201.00,98934,1.1759
! <Site Water Mains Temperature Information>,Calculation Method{},Water Mains Temperature Schedule Name{},Annual Average Outdoor Air Temperature{C},Maximum Difference In Monthly Average Outdoor Air Temperatures{deltaC},Fixed Default Water Mains Temperature{C}
Site Water Mains Temperature Information,FixedDefault,NA,NA,NA,10.0
! <Building Information>, Building Name,North Axis {deg},Terrain,  Loads Convergence Tolerance Value,Temperature Convergence Tolerance Value,  Solar Distribution,Maximum Number of Warmup Days,Minimum Number of Warmup Days
 Building Information,Professional Building,0.000,Suburbs,4.00000E-002,0.20000,FullInteriorAndExterior,15,6
! <Inside Convection Algorithm>, Algorithm {Simple | TARP | CeilingDiffuser | AdaptiveConvectionAlgorithm}
Inside Convection Algorithm,TARP
! <Outside Convection Algorithm>, Algorithm {SimpleCombined | TARP | MoWitt | DOE-2 | AdaptiveConvectionAlgorithm}
Outside Convection Algorithm,DOE-2
! <Sky Radiance Distribution>, Value {Anisotropic}
Sky Radiance Distribution,Anisotropic
! <Zone Air Solution Algorithm>, Algorithm {ThirdOrderBackwardDifference | AnalyticalSolution | EulerMethod}, Space Heat Balance Sizing, Space Heat Balance Simulation
 Zone Air Solution Algorithm, ThirdOrderBackwardDifference, No, No
! <Zone Air Carbon Dioxide Balance Simulation>, Simulation {Yes/No}, Carbon Dioxide Concentration
 Zone Air Carbon Dioxide Balance Simulation, No,N/A
! <Zone Air Generic Contaminant Balance Simulation>, Simulation {Yes/No}, Generic Contaminant Concentration
 Zone Air Generic Contaminant Balance Simulation, No,N/A
! <Zone Air Mass Flow Balance Simulation>, Enforce Mass Balance, Adjust Zone Mixing and Return {AdjustMixingOnly | AdjustReturnOnly | AdjustMixingThenReturn | AdjustReturnThenMixing | None}, Adjust Zone Infiltration {AddInfiltration | AdjustInfiltration | None}, Infiltration Zones {MixingSourceZonesOnly | AllZones}
 Zone Air Mass Flow Balance Simulation, No,N/A,N/A,N/A
! <HVACSystemRootFindingAlgorithm>, Value {RegulaFalsi | Bisection | BisectionThenRegulaFalsi | RegulaFalsiThenBisection}
 HVACSystemRootFindingAlgorithm, RegulaFalsi
! <Environment:Site Atmospheric Variation>,Wind Speed Profile Exponent {},Wind Speed Profile Boundary Layer Thickness {m},Air Temperature Gradient Coefficient {K/m}
Environment:Site Atmospheric Variation,0.220,370.000,6.500000E-003
! <Shadowing/Sun Position Calculations Annual Simulations>, Shading Calculation Method, Shading Calculation Update Frequency Method, Shading Calculation Update Frequency {days}, Maximum Figures in Shadow Overlap Calculations {}, Polygon Clipping Algorithm, Pixel Counting Resolution, Sky Diffuse Modeling Algorithm, Output External Shading Calculation Results, Disable Self-Shading Within Shading Zone Groups, Disable Self-Shading From Shading Zone Groups to Other Zones
Shadowing/Sun Position Calculations Annual Simulations,PolygonClipping,Periodic,20,15000,SutherlandHodgman,512,SimpleSkyDiffuseModeling,No,No,No
! <Surface Geometry>,Starting Corner,Vertex Input Direction,Coordinate System,Daylight Reference Point Coordinate System,Rectangular (Simple) Surface Coordinate System
 Surface Geometry,UpperLeftCorner,Counterclockwise,RelativeCoordinateSystem,RelativeCoordinateSystem,RelativeToZoneOrigin
! <Surface Heat Transfer Algorithm>, Value {CTF - ConductionTransferFunction | EMPD - MoisturePenetrationDepthConductionTransferFunction | CondFD - ConductionFiniteDifference | HAMT - CombinedHeatAndMoistureFiniteElement} - Description,Inside Surface Max Temperature Limit{C}, Surface Convection Coefficient Lower Limit {W/m2-K}, Surface Convection Coefficient Upper Limit {W/m2-K}
Surface Heat Transfer Algorithm, CTF - ConductionTransferFunction,200,0.10,1000.0
! <Shading Summary>, Number of Fixed Detached Shades, Number of Building Detached Shades, Number of Attached Shades
 Shading Summary,0,0,0
! <Zone Summary>, Number of Zones, Number of Zone Surfaces, Number of SubSurfaces
 Zone Summary,125,1375,500
! <Zone Information>,Zone Name,North Axis {deg},Origin X-Coordinate {m},Origin Y-Coordinate {m},Origin Z-Coordinate {m},Centroid X-Coordinate {m},Centroid Y-Coordinate {m},Centroid Z-Coordinate {m},Type,Zone Multiplier,Zone List Multiplier,Minimum X {m},Maximum X {m},Minimum Y {m},Maximum Y {m},Minimum Z {m},Maximum Z {m},Ceiling Height {m},Volume {m3},Zone Inside Convection Algorithm {Simple-Detailed-CeilingDiffuser-TrombeWall},Zone Outside Convection Algorithm {Simple-Detailed-Tarp-MoWitt-DOE-2-BLAST}, Floor Area {m2},Exterior Gross Wall Area {m2},Exterior Net Wall Area {m2},Exterior Window Area {m2}, Number of Surfaces, Number of SubSurfaces, Number of Shading SubSurfaces,  Part of Total Building Area
 Zone Information, CONFERENCE_0,0.0,0.00,0.00,0.00,7.00,2.60,1.50,1,1,1,3.74,10.25,0.20,5.00,0.00,3.00,3.00,90.40,TARP,DOE-2,30.13,66.67,46.60,20.07,6,4,0,Yes
 Zone Information, OFFICE_PRIVATE_0,0.0,0.00,0.00,0.00,11.94,2.60,1.50,1,1,1,10.17,13.71,0.20,5.00,0.00,3.00,3.00,48.59,TARP,DOE-2,16.20,48.88,34.17,14.71,6,4,0,Yes
 Zone Information, BREAK_ROOM_1,0.0,0.00,0.00,0.00,3.08,2.31,4.50,1,1,1,1.14,5.02,-8.84E-002,4.71,3.00,6.00,3.00,53.39,TARP,DOE-2,17.80,50.92,35.59,15.32,6,4,0,Yes
 Zone Information, BREAK_ROOM_3,0.0,0.00,0.00,0.00,9.29,2.82,10.50,1,1,1,5.97,12.62,0.42,5.22,9.00,12.00,3.00,92.30,TARP,DOE-2,30.77,67.48,47.17,20.31,6,4,0,Yes
 Zone Information, LOBBY_5,0.0,0.00,0.00,0.00,7.94,2.56,16.50,1,1,1,4.23,11.65,0.16,4.96,15.00,18.00,3.00,103.16,TARP,DOE-2,34.39,72.10,50.40,21.70,6,4,0,Yes
 Zone Information, OFFICE_PRIVATE_5,0.0,0.00,0.00,0.00,11.07,2.64,16.50,1,1,1,9.02,13.12,0.24,5.04,15.00,18.00,3.00,56.35,TARP,DOE-2,18.78,52.18,36.48,15.70,6,4,0,Yes
 Zone Information, LOBBY_6,0.0,0.00,0.00,0.00,4.96,2.42,19.50,1,1,1,0.75,9.17,1.65E-002,4.82,18.00,21.00,3.00,117.34,TARP,DOE-2,39.11,78.13,54.62,23.52,6,4,0,Yes
 Zone Information, BREAK_ROOM_6,0.0,0.00,0.00,0.00,8.29,2.66,19.50,1,1,1,5.11,11.47,0.26,5.06,18.00,21.00,3.00,88.20,TARP,DOE-2,29.40,65.73,45.95,19.78,6,4,0,Yes
 Zone Information, BREAK_ROOM_7,0.0,0.00,0.00,0.00,8.15,2.63,22.50,1,1,1,5.15,11.16,0.23,5.03,21.00,24.00,3.00,83.39,TARP,DOE-2,27.80,63.68,44.52,19.17,6,4,0,Yes
 Zone Information, MECHANICAL_9,0.0,0.00,0.00,0.00,7.15,2.45,28.50,1,1,1,4.40,9.90,5.09E-002,4.85,27.00,30.00,3.00,76.22,TARP,DOE-2,25.41,60.63,42.38,18.25,6,4,0,Yes
 Zone Information, LOBBY_11,0.0,0.00,0.00,0.00,9.54,2.68,34.50,1,1,1,5.22,13.86,0.28,5.08,33.00,36.00,3.00,120.42,TARP,DOE-2,40.14,79.44,55.53,23.91,6,4,0,Yes
 Zone Information, MECHANICAL_11,0.0,0.00,0.00,0.00,9.93,2.82,34.50,1,1,1,7.14,12.72,0.42,5.22,33.00,36.00,3.00,77.19,TARP,DOE-2,25.73,61.05,42.67,18.37,6,4,0,Yes
 Zone Information, CONFERENCE_12,0.0,0.00,0.00,0.00,9.68,2.76,37.50,1,1,1,6.81,12.54,0.36,5.16,36.00,39.00,3.00,79.35,TARP,DOE-2,26.45,61.97,43.32,18.65,6,4,0,Yes
 Zone Information, BREAK_ROOM_12,0.0,0.00,0.00,0.00,7.89,2.58,37.50,1,1,1,4.53,11.25,0.18,4.98,36.00,39.00,3.00,93.23,TARP,DOE-2,31.08,67.87,47.44,20.43,6,4,0,Yes
 Zone Information, MECHANICAL_12,0.0,0.00,0.00,0.00,3.15,2.55,37.50,1,1,1,1.13,5.17,0.15,4.95,36.00,39.00,3.00,55.54,TARP,DOE-2,18.51,51.83,36.23,15.60,6,4,0,Yes
 Zone Information, BREAK_ROOM_13,0.0,0.00,0.00,0.00,10.16,2.70,40.50,1,1,1,6.60,13.73,0.30,5.10,39.00,42.00,3.00,99.07,TARP,DOE-2,33.02,70.36,49.18,21.18,6,4,0,Yes
 Zone Information, OFFICE_PRIVATE_14,0.0,0.00,0.00,0.00,4.47,2.32,43.50,1,1,1,2.49,6.44,-7.97E-002,4.73,42.00,45.00,3.00,54.50,TARP,DOE-2,18.17,51.40,35.93,15.47,6,4,0,Yes
 Zone Information, BREAK_ROOM_15,0.0,0.00,0.00,0.00,8.52,2.52,46.50,1,1,1,4.93,12.11,0.12,4.92,45.00,48.00,3.00,99.81,TARP,DOE-2,33.27,70.67,49.40,21.27,6,4,0,Yes
 Zone Information, OFFICE_PRIVATE_15,0.0,0.00,0.00,0.00,7.43,2.54,46.50,1,1,1,5.32,9.53,0.14,4.94,45.00,48.00,3.00,57.93,TARP,DOE-2,19.31,52.85,36.95,15.91,6,4,0,Yes
 Zone Information, MECHANICAL_16,0.0,0.00,0.00,0.00,6.67,2.47,49.50,1,1,1,4.41,8.93,7.12E-002,4.87,48.00,51.00,3.00,62.32,TARP,DOE-2,20.77,54.72,38.25,16.47,6,4,0,Yes
 Zone Information, BREAK_ROOM_18,0.0,0.00,0.00,0.00,9.77,2.70,55.50,1,1,1,6.86,12.69,0.30,5.10,54.00,57.00,3.00,80.88,TARP,DOE-2,26.96,62.62,43.77,18.85,6,4,0,Yes
 Zone Information, MECHANICAL_18,0.0,0.00,0.00,0.00,7.88,2.57,55.50,1,1,1,3.85,11.92,0.17,4.97,54.00,57.00,3.00,112.32,TARP,DOE-2,37.44,76.00,53.12,22.87,6,4,0,Yes
 Zone Information, CONFERENCE_19,0.0,0.00,0.00,0.00,6.61,2.61,58.50,1,1,1,2.42,10.80,0.21,5.01,57.00,60.00,3.00,116.73,TARP,DOE-2,38.91,77.87,54.43,23.44,6,4,0,Yes
 Zone Information, BREAK_ROOM_19,0.0,0.00,0.00,0.00,11.42,2.61,58.50,1,1,1,9.29,13.55,0.21,5.01,57.00,60.00,3.00,58.66,TARP,DOE-2,19.55,53.16,37.16,16.00,6,4,0,Yes
 Zone Information, MECHANICAL_19,0.0,0.00,0.00,0.00,3.38,2.41,58.50,1,1,1,0.91,5.86,7.40E-003,4.81,57.00,60.00,3.00,68.36,TARP,DOE-2,22.79,57.29,40.05,17.24,6,4,0,Yes
 Zone Information, CONFERENCE_20,0.0,0.00,0.00,0.00,7.92,2.68,61.50,1,1,1,4.95,10.88,0.28,5.08,60.00,63.00,3.00,82.12,TARP,DOE-2,27.37,63.14,44.14,19.01,6,4,0,Yes
 Zone Information, MECHANICAL_20,0.0,0.00,0.00,0.00,7.27,2.46,61.50,1,1,1,4.15,10.38,6.11E-002,4.86,60.00,63.00,3.00,86.45,TARP,DOE-2,28.82,64.99,45.43,19.56,6,4,0,Yes
 Zone Information, OFFICE_PRIVATE_20,0.0,0.00,0.00,0.00,8.26,2.42,61.50,1,1,1,6.46,10.07,0.17,4.68,60.00,63.00,3.00,46.33,TARP,DOE-2,15.44,47.46,33.18,14.29,6,4,0,Yes
 Zone Information, MECHANICAL_21,0.0,0.00,0.00,0.00,7.92,2.68,64.50,1,1,1,4.80,11.04,0.28,5.08,63.00,66.00,3.00,86.67,TARP,DOE-2,28.89,65.08,45.49,19.59,6,4,0,Yes
 Zone Information, STORAGE_21,0.0,0.00,0.00,0.00,9.30,2.77,64.50,1,1,1,6.93,11.67,0.37,5.17,63.00,66.00,3.00,65.45,TARP,DOE-2,21.82,56.05,39.18,16.87,6,4,0,Yes
 Zone Information, CONFERENCE_22,0.0,0.00,0.00,0.00,8.83,2.59,67.50,1,1,1,5.29,12.36,0.19,4.99,66.00,69.00,3.00,98.22,TARP,DOE-2,32.74,69.99,48.93,21.07,6,4,0,Yes
 Zone Information, CONFERENCE_23,0.0,0.00,0.00,0.00,7.37,2.62,70.50,1,1,1,3.87,10.87,0.22,5.02,69.00,72.00,3.00,97.29,TARP,DOE-2,32.43,69.60,48.65,20.95,6,4,0,Yes
 Zone Information, STORAGE_24,0.0,0.00,0.00,0.00,8.25,2.65,73.50,1,1,1,5.34,11.15,0.25,5.05,72.00,75.00,3.00,80.46,TARP,DOE-2,26.82,62.44,43.65,18.79,6,4,0,Yes
 Zone Information, BREAK_ROOM_27,0.0,0.00,0.00,0.00,5.02,2.51,82.50,1,1,1,1.80,8.24,0.11,4.91,81.00,84.00,3.00,89.46,TARP,DOE-2,29.82,66.27,46.32,19.94,6,4,0,Yes
 Zone Information, CONFERENCE_28,0.0,0.00,0.00,0.00,7.06,2.69,85.50,1,1,1,3.42,10.71,0.29,5.09,84.00,87.00,3.00,101.41,TARP,DOE-2,33.80,71.35,49.88,21.48,6,4,0,Yes
 Zone Information, OFFICE_PRIVATE_28,0.0,0.00,0.00,0.00,11.49,2.59,85.50,1,1,1,9.10,13.89,0.19,4.99,84.00,87.00,3.00,66.09,TARP,DOE-2,22.03,56.32,39.37,16.95,6,4,0,Yes
 Zone Information, LOBBY_29,0.0,0.00,0.00,0.00,11.00,2.72,88.50,1,1,1,8.29,13.72,0.32,5.12,87.00,90.00,3.00,75.22,TARP,DOE-2,25.07,60.21,42.09,18.12,6,4,0,Yes
 Zone Information, MECHANICAL_30,0.0,0.00,0.00,0.00,9.09,2.73,91.50,1,1,1,5.80,12.38,0.33,5.13,90.00,93.00,3.00,91.43,TARP,DOE-2,30.48,67.11,46.91,20.20,6,4,0,Yes
 Zone Information, LOBBY_31,0.0,0.00,0.00,0.00,10.79,2.92,94.50,1,1,1,7.85,13.73,0.52,5.32,93.00,96.00,3.00,81.58,TARP,DOE-2,27.19,62.91,43.98,18.94,6,4,0,Yes
 Zone Information, CONFERENCE_31,0.0,0.00,0.00,0.00,5.46,2.59,94.50,1,1,1,2.06,8.86,0.19,4.99,93.00,96.00,3.00,94.45,TARP,DOE-2,31.48,68.39,47.81,20.58,6,4,0,Yes
 Zone Information, OFFICE_PRIVATE_32,0.0,0.00,0.00,0.00,6.35,2.53,97.50,1,1,1,3.57,9.14,0.13,4.93,96.00,99.00,3.00,77.22,TARP,DOE-2,25.74,61.06,42.68,18.38,6,4,0,Yes
 Zone Information, STORAGE_32,0.0,0.00,0.00,0.00,12.17,2.64,97.50,1,1,1,10.36,13.98,0.24,5.04,96.00,99.00,3.00,49.65,TARP,DOE-2,16.55,49.33,34.48,14.85,6,4,0,Yes
 Zone Information, CONFERENCE_34,0.0,0.00,0.00,0.00,8.22,2.60,103.50,1,1,1,3.42,13.02,0.20,5.00,102.00,105.00,3.00,133.93,TARP,DOE-2,44.64,85.19,59.55,25.64,6,4,0,Yes
 Zone Information, OFFICE_PRIVATE_34,0.0,0.00,0.00,0.00,6.23,2.47,103.50,1,1,1,4.24,8.23,0.37,4.58,102.00,105.00,3.00,47.92,TARP,DOE-2,15.97,47.98,33.54,14.44,6,4,0,Yes
 Zone Information, MECHANICAL_35,0.0,0.00,0.00,0.00,6.52,2.59,106.50,1,1,1,4.52,8.52,0.19,4.99,105.00,108.00,3.00,55.00,TARP,DOE-2,18.33,51.60,36.07,15.53,6,4,0,Yes
 Zone Information, CONFERENCE_36,0.0,0.00,0.00,0.00,7.39,2.52,109.50,1,1,1,3.84,10.95,0.12,4.92,108.00,111.00,3.00,98.85,TARP,DOE-2,32.95,70.26,49.12,21.15,6,4,0,Yes
 Zone Information, STORAGE_36,0.0,0.00,0.00,0.00,7.25,2.53,109.50,1,1,1,5.06,9.44,0.13,4.93,108.00,111.00,3.00,60.44,TARP,DOE-2,20.15,53.92,37.69,16.23,6,4,0,Yes
 Zone Information, OFFICE_PRIVATE_37,0.0,0.00,0.00,0.00,8.48,2.48,112.50,1,1,1,5.69,11.28,8.05E-002,4.88,111.00,114.00,3.00,77.52,TARP,DOE-2,25.84,61.19,42.77,18.42,6,4,0,Yes
 Zone Information, BREAK_ROOM_38,0.0,0.00,0.00,0.00,7.99,2.65,115.50,1,1,1,4.25,11.74,0.25,5.05,114.00,117.00,3.00,104.30,TARP,DOE-2,34.77,72.58,50.74,21.85,6,4,0,Yes
 Zone Information, STORAGE_39,0.0,0.00,0.00,0.00,10.30,2.70,118.50,1,1,1,7.79,12.80,0.30,5.10,117.00,120.00,3.00,69.30,TARP,DOE-2,23.10,57.69,40.33,17.36,6,4,0,Yes
 Zone Information, OFFICE_PRIVATE_40,0.0,0.00,0.00,0.00,4.46,2.33,121.50,1,1,1,2.28,6.63,-6.96E-002,4.73,120.00,123.00,3.00,59.84,TARP,DOE-2,19.95,53.66,37.51,16.15,6,4,0,Yes
 Zone Information, STORAGE_40,0.0,0.00,0.00,0.00,11.25,2.89,121.50,1,1,1,9.45,13.05,0.49,5.29,120.00,123.00,3.00,49.30,TARP,DOE-2,16.43,49.18,34.38,14.80,6,4,0,Yes
 Zone Information, LOBBY_41,0.0,0.00,0.00,0.00,9.19,2.68,124.50,1,1,1,5.23,13.15,0.28,5.08,123.00,126.00,3.00,110.20,TARP,DOE-2,36.73,75.09,52.49,22.60,6,4,0,Yes
 Zone Information, CONFERENCE_41,0.0,0.00,0.00,0.00,8.69,2.65,124.50,1,1,1,6.02,11.36,0.25,5.05,123.00,126.00,3.00,73.78,TARP,DOE-2,24.59,59.60,41.66,17.94,6,4,0,Yes
 Zone Information, MECHANICAL_41,0.0,0.00,0.00,0.00,9.72,2.78,124.50,1,1,1,5.93,13.52,0.38,5.18,123.00,126.00,3.00,105.63,TARP,DOE-2,35.21,73.15,51.13,22.02,6,4,0,Yes
 Zone Information, OFFICE_PRIVATE_42,0.0,0.00,0.00,0.00,9.39,2.86,127.50,1,1,1,7.03,11.76,0.46,5.26,126.00,129.00,3.00,65.23,TARP,DOE-2,21.74,55.96,39.11,16.84,6,4,0,Yes
 Zone Information, BREAK_ROOM_44,0.0,0.00,0.00,0.00,8.67,2.69,133.50,1,1,1,5.68,11.65,0.29,5.09,132.00,135.00,3.00,82.84,TARP,DOE-2,27.61,63.45,44.35,19.10,6,4,0,Yes
 Zone Information, LOBBY_47,0.0,0.00,0.00,0.00,9.53,2.77,142.50,1,1,1,6.44,12.61,0.37,5.17,141.00,144.00,3.00,85.70,TARP,DOE-2,28.57,64.67,45.20,19.46,6,4,0,Yes
 Zone Information, LOBBY_48,0.0,0.00,0.00,0.00,5.33,2.62,145.50,1,1,1,2.56,8.11,0.22,5.02,144.00,147.00,3.00,76.94,TARP,DOE-2,25.65,60.94,42.60,18.34,6,4,0,Yes
 Zone Information, LOBBY_50,0.0,0.00,0.00,0.00,4.92,2.48,151.50,1,1,1,0.52,9.32,8.13E-002,4.88,150.00,153.00,3.00,122.67,TARP,DOE-2,40.89,80.40,56.20,24.20,6,4,0,Yes
 Zone Information, BREAK_ROOM_50,0.0,0.00,0.00,0.00,7.87,2.50,151.50,1,1,1,5.28,10.46,9.98E-002,4.90,150.00,153.00,3.00,71.61,TARP,DOE-2,23.87,58.67,41.01,17.66,6,4,0,Yes
 Zone Information, MECHANICAL_51,0.0,0.00,0.00,0.00,11.41,2.90,154.50,1,1,1,8.83,13.99,0.50,5.30,153.00,156.00,3.00,71.31,TARP,DOE-2,23.77,58.55,40.93,17.62,6,4,0,Yes
 Zone Information, OFFICE_PRIVATE_51,0.0,0.00,0.00,0.00,6.55,2.44,154.50,1,1,1,3.94,9.16,3.86E-002,4.84,153.00,156.00,3.00,72.18,TARP,DOE-2,24.06,58.91,41.18,17.73,6,4,0,Yes
 Zone Information, CONFERENCE_53,0.0,0.00,0.00,0.00,4.19,2.52,160.50,1,1,1,0.20,8.18,0.12,4.92,159.00,162.00,3.00,111.12,TARP,DOE-2,37.04,75.48,52.76,22.72,6,4,0,Yes
 Zone Information, STORAGE_54,0.0,0.00,0.00,0.00,6.43,2.70,163.50,1,1,1,3.89,8.97,0.30,5.10,162.00,165.00,3.00,70.18,TARP,DOE-2,23.39,58.07,40.59,17.48,6,4,0,Yes
 Zone Information, STORAGE_56,0.0,0.00,0.00,0.00,8.07,2.71,169.50,1,1,1,5.98,10.15,0.56,4.86,168.00,171.00,3.00,51.24,TARP,DOE-2,17.08,49.60,34.67,14.93,6,4,0,Yes
 Zone Information, OFFICE_PRIVATE_57,0.0,0.00,0.00,0.00,7.99,2.58,172.50,1,1,1,5.80,10.18,0.18,4.98,171.00,174.00,3.00,60.30,TARP,DOE-2,20.10,53.86,37.65,16.21,6,4,0,Yes
 Zone Information, CONFERENCE_59,0.0,0.00,0.00,0.00,11.55,2.78,178.50,1,1,1,9.18,13.92,0.38,5.18,177.00,180.00,3.00,65.42,TARP,DOE-2,21.81,56.04,39.17,16.87,6,4,0,Yes
 Zone Information, BREAK_ROOM_59,0.0,0.00,0.00,0.00,7.43,2.60,178.50,1,1,1,3.79,11.07,0.20,5.00,177.00,180.00,3.00,101.23,TARP,DOE-2,33.74,71.28,49.82,21.45,6,4,0,Yes
 Zone Information, MECHANICAL_59,0.0,0.00,0.00,0.00,7.63,2.79,178.50,1,1,1,5.36,9.90,0.39,5.19,177.00,180.00,3.00,62.51,TARP,DOE-2,20.84,54.80,38.31,16.49,6,4,0,Yes
 Zone Information, STORAGE_60,0.0,0.00,0.00,0.00,8.45,2.79,181.50,1,1,1,5.38,11.52,0.39,5.19,180.00,183.00,3.00,85.21,TARP,DOE-2,28.40,64.46,45.06,19.40,6,4,0,Yes
 Zone Information, STORAGE_61,0.0,0.00,0.00,0.00,5.57,2.65,184.50,1,1,1,2.92,8.22,0.25,5.05,183.00,186.00,3.00,73.37,TARP,DOE-2,24.46,59.42,41.54,17.88,6,4,0,Yes
 Zone Information, OFFICE_PRIVATE_62,0.0,0.00,0.00,0.00,8.56,2.66,187.50,1,1,1,6.13,10.99,0.26,5.06,186.00,189.00,3.00,67.16,TARP,DOE-2,22.39,56.78,39.69,17.09,6,4,0,Yes
 Zone Information, CONFERENCE_63,0.0,0.00,0.00,0.00,10.51,2.69,190.50,1,1,1,6.96,14.07,0.29,5.09,189.00,192.00,3.00,98.84,TARP,DOE-2,32.95,70.26,49.11,21.15,6,4,0,Yes
 Zone Information, OFFICE_PRIVATE_63,0.0,0.00,0.00,0.00,6.03,2.44,190.50,1,1,1,3.67,8.39,4.29E-002,4.84,189.00,192.00,3.00,65.18,TARP,DOE-2,21.73,55.94,39.10,16.83,6,4,0,Yes
 Zone Information, BREAK_ROOM_64,0.0,0.00,0.00,0.00,3.20,2.33,193.50,1,1,1,0.59,5.81,-7.39E-002,4.73,192.00,195.00,3.00,72.21,TARP,DOE-2,24.07,58.93,41.19,17.74,6,4,0,Yes
 Zone Information, MECHANICAL_64,0.0,0.00,0.00,0.00,6.05,2.46,193.50,1,1,1,2.00,10.10,6.48E-002,4.86,192.00,195.00,3.00,112.77,TARP,DOE-2,37.59,76.19,53.26,22.93,6,4,0,Yes
 Zone Information, STORAGE_64,0.0,0.00,0.00,0.00,7.27,2.90,193.50,1,1,1,6.01,8.53,0.57,5.23,192.00,195.00,3.00,33.12,TARP,DOE-2,11.04,41.88,29.28,12.60,6,4,0,Yes
 Zone Information, CONFERENCE_65,0.0,0.00,0.00,0.00,8.70,2.67,196.50,1,1,1,5.55,11.84,0.27,5.07,195.00,198.00,3.00,87.22,TARP,DOE-2,29.07,65.31,45.66,19.66,6,4,0,Yes
 Zone Information, LOBBY_66,0.0,0.00,0.00,0.00,7.91,2.66,199.50,1,1,1,3.04,12.79,0.26,5.06,198.00,201.00,3.00,136.00,TARP,DOE-2,45.33,86.07,60.17,25.91,6,4,0,Yes
 Zone Information, CONFERENCE_66,0.0,0.00,0.00,0.00,8.44,2.80,199.50,1,1,1,5.39,11.49,0.40,5.20,198.00,201.00,3.00,84.49,TARP,DOE-2,28.16,64.15,44.84,19.31,6,4,0,Yes
 Zone Information, CONFERENCE_68,0.0,0.00,0.00,0.00,6.15,2.62,205.50,1,1,1,3.05,9.25,0.22,5.02,204.00,207.00,3.00,86.04,TARP,DOE-2,28.68,64.81,45.31,19.51,6,4,0,Yes
 Zone Information, MECHANICAL_69,0.0,0.00,0.00,0.00,9.06,2.58,208.50,1,1,1,5.46,12.66,0.18,4.98,207.00,210.00,3.00,100.17,TARP,DOE-2,33.39,70.82,49.51,21.32,6,4,0,Yes
 Zone Information, STORAGE_70,0.0,0.00,0.00,0.00,7.83,2.53,211.50,1,1,1,4.95,10.70,0.13,4.93,210.00,213.00,3.00,79.60,TARP,DOE-2,26.53,62.07,43.39,18.68,6,4,0,Yes
 Zone Information, BREAK_ROOM_71,0.0,0.00,0.00,0.00,3.78,2.51,214.50,1,1,1,1.96,5.60,0.11,4.91,213.00,216.00,3.00,50.02,TARP,DOE-2,16.67,49.49,34.59,14.89,6,4,0,Yes
 Zone Information, BREAK_ROOM_72,0.0,0.00,0.00,0.00,7.66,2.66,217.50,1,1,1,3.78,11.53,0.26,5.06,216.00,219.00,3.00,107.93,TARP,DOE-2,35.98,74.13,51.82,22.31,6,4,0,Yes
 Zone Information, CONFERENCE_73,0.0,0.00,0.00,0.00,11.65,2.61,220.50,1,1,1,9.37,13.92,0.21,5.01,219.00,222.00,3.00,62.66,TARP,DOE-2,20.89,54.86,38.35,16.51,6,4,0,Yes
 Zone Information, OFFICE_PRIVATE_73,0.0,0.00,0.00,0.00,11.94,2.82,220.50,1,1,1,10.03,13.86,0.42,5.22,219.00,222.00,3.00,52.57,TARP,DOE-2,17.52,50.57,35.35,15.22,6,4,0,Yes
 Zone Information, BREAK_ROOM_74,0.0,0.00,0.00,0.00,8.45,2.80,223.50,1,1,1,5.43,11.46,0.40,5.20,222.00,225.00,3.00,83.58,TARP,DOE-2,27.86,63.77,44.57,19.19,6,4,0,Yes
 Zone Information, OFFICE_PRIVATE_74,0.0,0.00,0.00,0.00,9.84,2.73,223.50,1,1,1,7.71,11.96,0.33,5.13,222.00,225.00,3.00,58.47,TARP,DOE-2,19.49,53.08,37.11,15.98,6,4,0,Yes
 Zone Information, BREAK_ROOM_75,0.0,0.00,0.00,0.00,3.66,2.43,226.50,1,1,1,1.28,6.05,2.87E-002,4.83,225.00,228.00,3.00,65.78,TARP,DOE-2,21.93,56.19,39.28,16.91,6,4,0,Yes
 Zone Information, CONFERENCE_76,0.0,0.00,0.00,0.00,9.13,2.57,229.50,1,1,1,4.49,13.78,0.17,4.97,228.00,231.00,3.00,129.60,TARP,DOE-2,43.20,83.35,58.26,25.09,6,4,0,Yes
 Zone Information, MECHANICAL_76,0.0,0.00,0.00,0.00,5.98,2.50,229.50,1,1,1,2.72,9.25,0.10,4.90,228.00,231.00,3.00,90.75,TARP,DOE-2,30.25,66.82,46.71,20.11,6,4,0,Yes
 Zone Information, BREAK_ROOM_77,0.0,0.00,0.00,0.00,10.35,2.78,232.50,1,1,1,6.92,13.78,0.38,5.18,231.00,234.00,3.00,95.36,TARP,DOE-2,31.79,68.78,48.08,20.70,6,4,0,Yes
 Zone Information, MECHANICAL_77,0.0,0.00,0.00,0.00,4.84,2.57,232.50,1,1,1,2.59,7.10,0.17,4.97,231.00,234.00,3.00,62.20,TARP,DOE-2,20.73,54.67,38.21,16.45,6,4,0,Yes
 Zone Information, CONFERENCE_78,0.0,0.00,0.00,0.00,4.04,2.34,235.50,1,1,1,0.77,7.31,-5.68E-002,4.74,234.00,237.00,3.00,90.75,TARP,DOE-2,30.25,66.82,46.71,20.11,6,4,0,Yes
 Zone Information, MECHANICAL_78,0.0,0.00,0.00,0.00,8.32,2.77,235.50,1,1,1,4.78,11.87,0.37,5.17,234.00,237.00,3.00,98.57,TARP,DOE-2,32.86,70.14,49.03,21.11,6,4,0,Yes
 Zone Information, STORAGE_78,0.0,0.00,0.00,0.00,6.68,2.65,235.50,1,1,1,5.23,8.13,0.73,4.57,234.00,237.00,3.00,31.47,TARP,DOE-2,10.49,39.27,27.45,11.82,6,4,0,Yes
 Zone Information, MECHANICAL_79,0.0,0.00,0.00,0.00,5.41,2.45,238.50,1,1,1,1.72,9.09,5.39E-002,4.85,237.00,240.00,3.00,102.47,TARP,DOE-2,34.16,71.80,50.19,21.61,6,4,0,Yes
 Zone Information, LOBBY_82,0.0,0.00,0.00,0.00,7.39,2.65,247.50,1,1,1,3.56,11.21,0.25,5.05,246.00,249.00,3.00,106.52,TARP,DOE-2,35.51,73.53,51.40,22.13,6,4,0,Yes
 Zone Information, LOBBY_83,0.0,0.00,0.00,0.00,5.43,2.45,250.50,1,1,1,0.61,10.25,5.47E-002,4.85,249.00,252.00,3.00,134.53,TARP,DOE-2,44.84,85.45,59.73,25.72,6,4,0,Yes
 Zone Information, MECHANICAL_85,0.0,0.00,0.00,0.00,9.04,2.60,256.50,1,1,1,4.83,13.26,0.20,5.00,255.00,258.00,3.00,117.42,TARP,DOE-2,39.14,78.17,54.64,23.53,6,4,0,Yes
 Zone Information, STORAGE_85,0.0,0.00,0.00,0.00,7.71,2.82,256.50,1,1,1,6.32,9.10,0.39,5.24,255.00,258.00,3.00,38.18,TARP,DOE-2,12.73,44.59,31.17,13.42,6,4,0,Yes
 Zone Information, CONFERENCE_86,0.0,0.00,0.00,0.00,9.93,2.64,259.50,1,1,1,7.53,12.33,0.24,5.04,258.00,261.00,3.00,66.33,TARP,DOE-2,22.11,56.43,39.44,16.98,6,4,0,Yes
 Zone Information, STORAGE_86,0.0,0.00,0.00,0.00,4.07,2.59,259.50,1,1,1,1.90,6.25,0.19,4.99,258.00,261.00,3.00,59.97,TARP,DOE-2,19.99,53.72,37.55,16.17,6,4,0,Yes
 Zone Information, BREAK_ROOM_87,0.0,0.00,0.00,0.00,5.53,2.68,262.50,1,1,1,3.30,7.76,0.28,5.08,261.00,264.00,3.00,61.41,TARP,DOE-2,20.47,54.33,37.98,16.35,6,4,0,Yes
 Zone Information, MECHANICAL_87,0.0,0.00,0.00,0.00,5.77,2.52,262.50,1,1,1,2.39,9.15,0.12,4.92,261.00,264.00,3.00,93.84,TARP,DOE-2,31.28,68.13,47.63,20.51,6,4,0,Yes
 Zone Information, OFFICE_PRIVATE_87,0.0,0.00,0.00,0.00,6.41,2.17,262.50,1,1,1,4.47,8.36,-2.08E-002,4.36,261.00,264.00,3.00,48.70,TARP,DOE-2,16.23,48.44,33.86,14.58,6,4,0,Yes
 Zone Information, LOBBY_88,0.0,0.00,0.00,0.00,6.21,2.68,265.50,1,1,1,3.14,9.28,0.28,5.08,264.00,267.00,3.00,85.21,TARP,DOE-2,28.40,64.46,45.06,19.40,6,4,0,Yes
 Zone Information, BREAK_ROOM_88,0.0,0.00,0.00,0.00,10.66,2.87,265.50,1,1,1,7.94,13.39,0.47,5.27,264.00,267.00,3.00,75.53,TARP,DOE-2,25.18,60.34,42.18,18.16,6,4,0,Yes
 Zone Information, STORAGE_88,0.0,0.00,0.00,0.00,5.82,2.49,265.50,1,1,1,3.84,7.79,0.18,4.79,264.00,267.00,3.00,52.08,TARP,DOE-2,17.36,50.15,35.06,15.09,6,4,0,Yes
 Zone Information, LOBBY_91,0.0,0.00,0.00,0.00,3.54,2.40,274.50,1,1,1,0.69,6.40,3.20E-003,4.80,273.00,276.00,3.00,79.16,TARP,DOE-2,26.39,61.88,43.26,18.63,6,4,0,Yes
 Zone Information, BREAK_ROOM_91,0.0,0.00,0.00,0.00,5.02,2.44,274.50,1,1,1,2.57,7.47,3.87E-002,4.84,273.00,276.00,3.00,67.66,TARP,DOE-2,22.55,56.99,39.84,17.15,6,4,0,Yes
 Zone Information, STORAGE_91,0.0,0.00,0.00,0.00,8.35,2.51,274.50,1,1,1,6.28,10.43,0.35,4.68,273.00,276.00,3.00,51.36,TARP,DOE-2,17.12,49.66,34.72,14.95,6,4,0,Yes
 Zone Information, CONFERENCE_93,0.0,0.00,0.00,0.00,9.06,2.66,280.50,1,1,1,6.21,11.92,0.26,5.06,279.00,282.00,3.00,79.12,TARP,DOE-2,26.37,61.87,43.25,18.62,6,4,0,Yes
 Zone Information, OFFICE_PRIVATE_93,0.0,0.00,0.00,0.00,5.64,2.53,280.50,1,1,1,3.61,7.66,0.41,4.64,279.00,282.00,3.00,48.95,TARP,DOE-2,16.32,48.48,33.89,14.59,6,4,0,Yes
 Zone Information, STORAGE_94,0.0,0.00,0.00,0.00,8.42,2.81,283.50,1,1,1,6.73,10.10,0.41,5.21,282.00,285.00,3.00,46.15,TARP,DOE-2,15.38,47.84,33.44,14.40,6,4,0,Yes
 Zone Information, MECHANICAL_95,0.0,0.00,0.00,0.00,5.69,2.52,286.50,1,1,1,2.34,9.04,0.12,4.92,285.00,288.00,3.00,93.05,TARP,DOE-2,31.02,67.80,47.39,20.41,6,4,0,Yes
 Zone Information, LOBBY_96,0.0,0.00,0.00,0.00,5.72,2.45,289.50,1,1,1,1.75,9.70,5.13E-002,4.85,288.00,291.00,3.00,110.62,TARP,DOE-2,36.87,75.27,52.62,22.66,6,4,0,Yes
 Zone Information, LOBBY_97,0.0,0.00,0.00,0.00,7.36,2.50,292.50,1,1,1,3.85,10.87,0.10,4.90,291.00,294.00,3.00,97.62,TARP,DOE-2,32.54,69.74,48.75,20.99,6,4,0,Yes
 Zone Information, OFFICE_PRIVATE_97,0.0,0.00,0.00,0.00,9.74,2.91,292.50,1,1,1,7.49,11.99,0.51,5.31,291.00,294.00,3.00,62.08,TARP,DOE-2,20.69,54.62,38.18,16.44,6,4,0,Yes
 Zone Information, STORAGE_97,0.0,0.00,0.00,0.00,5.00,2.34,292.50,1,1,1,3.25,6.76,0.30,4.38,291.00,294.00,3.00,40.80,TARP,DOE-2,13.60,44.38,31.03,13.36,6,4,0,Yes
 Zone Information, LOBBY_98,0.0,0.00,0.00,0.00,9.88,2.67,295.50,1,1,1,5.82,13.94,0.27,5.07,294.00,297.00,3.00,113.14,TARP,DOE-2,37.71,76.34,53.37,22.98,6,4,0,Yes
 Zone Information, BREAK_ROOM_98,0.0,0.00,0.00,0.00,7.68,2.58,295.50,1,1,1,4.90,10.47,0.18,4.98,294.00,297.00,3.00,77.17,TARP,DOE-2,25.72,61.04,42.67,18.37,6,4,0,Yes
 Zone Information, STORAGE_99,0.0,0.00,0.00,0.00,11.66,2.73,298.50,1,1,1,10.07,13.25,1.04,4.42,297.00,300.00,3.00,30.28,TARP,DOE-2,10.09,38.14,26.66,11.48,6,4,0,Yes
! <Zone Internal Gains Nominal>,Zone Name, Floor Area {m2},# Occupants,Area per Occupant {m2/person},Occupant per Area {person/m2},Interior Lighting {W/m2},Electric Load {W/m2},Gas Load {W/m2},Other Load {W/m2},Hot Water Eq {W/m2},Steam Equipment {W/m2},Sum Loads per Area {W/m2},Outdoor Controlled Baseboard Heat
 Zone Internal Gains Nominal, CONFERENCE_0,30.13,6.0,5.022,0.199,10.800,8.100,0.000,0.000,0.000,0.000,18.900,No
 Zone Internal Gains Nominal, OFFICE_PRIVATE_0,16.20,1.0,16.197,6.174E-002,10.800,8.100,0.000,0.000,0.000,0.000,18.900,No
 Zone Internal Gains Nominal, BREAK_ROOM_1,17.80,1.0,17.796,5.619E-002,8.100,15.000,0.000,0.000,0.000,0.000,23.100,No
 Zone Internal Gains Nominal, BREAK_ROOM_3,30.77,3.0,10.256,9.750E-002,8.100,15.000,0.000,0.000,0.000,0.000,23.100,No
 Zone Internal Gains Nominal, LOBBY_5,34.39,1.0,34.387,2.908E-002,12.900,3.200,0.000,0.000,0.000,0.000,16.100,No
 Zone Internal Gains Nominal, OFFICE_PRIVATE_5,18.78,1.0,18.784,5.324E-002,10.800,8.100,0.000,0.000,0.000,0.000,18.900,No
 Zone Internal Gains Nominal, LOBBY_6,39.11,1.0,39.113,2.557E-002,12.900,3.200,0.000,0.000,0.000,0.000,16.100,No
 Zone Internal Gains Nominal, BREAK_ROOM_6,29.40,2.0,14.700,6.803E-002,8.100,15.000,0.000,0.000,0.000,0.000,23.100,No
 Zone Internal Gains Nominal, BREAK_ROOM_7,27.80,2.0,13.898,7.195E-002,8.100,15.000,0.000,0.000,0.000,0.000,23.100,No
 Zone Internal Gains Nominal, MECHANICAL_9,25.41,1.0,25.405,3.936E-002,5.400,0.000,0.000,0.000,0.000,0.000,5.400,No
 Zone Internal Gains Nominal, LOBBY_11,40.14,2.0,20.070,4.983E-002,12.900,3.200,0.000,0.000,0.000,0.000,16.100,No
 Zone Internal Gains Nominal, MECHANICAL_11,25.73,1.0,25.729,3.887E-002,5.400,0.000,0.000,0.000,0.000,0.000,5.400,No
 Zone Internal Gains Nominal, CONFERENCE_12,26.45,5.0,5.290,0.189,10.800,8.100,0.000,0.000,0.000,0.000,18.900,No
 Zone Internal Gains Nominal, BREAK_ROOM_12,31.08,3.0,10.358,9.654E-002,8.100,15.000,0.000,0.000,0.000,0.000,23.100,No
 Zone Internal Gains Nominal, MECHANICAL_12,18.51,1.0,18.512,5.402E-002,5.400,0.000,0.000,0.000,0.000,0.000,5.400,No
 Zone Internal Gains Nominal, BREAK_ROOM_13,33.02,3.0,11.007,9.085E-002,8.100,15.000,0.000,0.000,0.000,0.000,23.100,No
 Zone Internal Gains Nominal, OFFICE_PRIVATE_14,18.17,1.0,18.166,5.505E-002,10.800,8.100,0.000,0.000,0.000,0.000,18.900,No
 Zone Internal Gains Nominal, BREAK_ROOM_15,33.27,3.0,11.090,9.017E-002,8.100,15.000,0.000,0.000,0.000,0.000,23.100,No
 Zone Internal Gains Nominal, OFFICE_PRIVATE_15,19.31,1.0,19.311,5.178E-002,10.800,8.100,0.000,0.000,0.000,0.000,18.900,No
 Zone Internal Gains Nominal, MECHANICAL_16,20.77,1.0,20.772,4.814E-002,5.400,0.000,0.000,0.000,0.000,0.000,5.400,No
 Zone Internal Gains Nominal, BREAK_ROOM_18,26.96,2.0,13.481,7.418E-002,8.100,15.000,0.000,0.000,0.000,0.000,23.100,No
 Zone Internal Gains Nominal, MECHANICAL_18,37.44,1.0,37.441,2.671E-002,5.400,0.000,0.000,0.000,0.000,0.000,5.400,No
 Zone Internal Gains Nominal, CONFERENCE_19,38.91,7.0,5.559,0.180,10.800,8.100,0.000,0.000,0.000,0.000,18.900,No
 Zone Internal Gains Nominal, BREAK_ROOM_19,19.55,1.0,19.554,5.114E-002,8.100,15.000,0.000,0.000,0.000,0.000,23.100,No
 Zone Internal Gains Nominal, MECHANICAL_19,22.79,1.0,22.787,4.388E-002,5.400,0.000,0.000,0.000,0.000,0.000,5.400,No
 Zone Internal Gains Nominal, CONFERENCE_20,27.37,5.0,5.475,0.183,10.800,8.100,0.000,0.000,0.000,0.000,18.900,No
 Zone Internal Gains Nominal, MECHANICAL_20,28.82,1.0,28.817,3.470E-002,5.400,0.000,0.000,0.000,0.000,0.000,5.400,No
 Zone Internal Gains Nominal, OFFICE_PRIVATE_20,15.44,1.0,15.443,6.475E-002,10.800,8.100,0.000,0.000,0.000,0.000,18.900,No
 Zone Internal Gains Nominal, MECHANICAL_21,28.89,1.0,28.889,3.462E-002,5.400,0.000,0.000,0.000,0.000,0.000,5.400,No
 Zone Internal Gains Nominal, STORAGE_21,21.82,1.0,21.816,4.584E-002,5.400,1.100,0.000,0.000,0.000,0.000,6.500,No
 Zone Internal Gains Nominal, CONFERENCE_22,32.74,6.0,5.456,0.183,10.800,8.100,0.000,0.000,0.000,0.000,18.900,No
 Zone Internal Gains Nominal, CONFERENCE_23,32.43,6.0,5.405,0.185,10.800,8.100,0.000,0.000,0.000,0.000,18.900,No
 Zone Internal Gains Nominal, STORAGE_24,26.82,1.0,26.821,3.728E-002,5.400,1.100,0.000,0.000,0.000,0.000,6.500,No
 Zone Internal Gains Nominal, BREAK_ROOM_27,29.82,2.0,14.909,6.707E-002,8.100,15.000,0.000,0.000,0.000,0.000,23.100,No
 Zone Internal Gains Nominal, CONFERENCE_28,33.80,6.0,5.634,0.178,10.800,8.100,0.000,0.000,0.000,0.000,18.900,No
 Zone Internal Gains Nominal, OFFICE_PRIVATE_28,22.03,1.0,22.030,4.539E-002,10.800,8.100,0.000,0.000,0.000,0.000,18.900,No
 Zone Internal Gains Nominal, LOBBY_29,25.07,1.0,25.073,3.988E-002,12.900,3.200,0.000,0.000,0.000,0.000,16.100,No
 Zone Internal Gains Nominal, MECHANICAL_30,30.48,1.0,30.477,3.281E-002,5.400,0.000,0.000,0.000,0.000,0.000,5.400,No
 Zone Internal Gains Nominal, LOBBY_31,27.19,1.0,27.192,3.678E-002,12.900,3.200,0.000,0.000,0.000,0.000,16.100,No
 Zone Internal Gains Nominal, CONFERENCE_31,31.48,6.0,5.247,0.191,10.800,8.100,0.000,0.000,0.000,0.000,18.900,No
 Zone Internal Gains Nominal, OFFICE_PRIVATE_32,25.74,1.0,25.740,3.885E-002,10.800,8.100,0.000,0.000,0.000,0.000,18.900,No
 Zone Internal Gains Nominal, STORAGE_32,16.55,1.0,16.549,6.043E-002,5.400,1.100,0.000,0.000,0.000,0.000,6.500,No
 Zone Internal Gains Nominal, CONFERENCE_34,44.64,8.0,5.581,0.179,10.800,8.100,0.000,0.000,0.000,0.000,18.900,No
 Zone Internal Gains Nominal, OFFICE_PRIVATE_34,15.97,1.0,15.972,6.261E-002,10.800,8.100,0.000,0.000,0.000,0.000,18.900,No
 Zone Internal Gains Nominal, MECHANICAL_35,18.33,1.0,18.333,5.455E-002,5.400,0.000,0.000,0.000,0.000,0.000,5.400,No
 Zone Internal Gains Nominal, CONFERENCE_36,32.95,6.0,5.492,0.182,10.800,8.100,0.000,0.000,0.000,0.000,18.900,No
 Zone Internal Gains Nominal, STORAGE_36,20.15,1.0,20.146,4.964E-002,5.400,1.100,0.000,0.000,0.000,0.000,6.500,No
 Zone Internal Gains Nominal, OFFICE_PRIVATE_37,25.84,1.0,25.841,3.870E-002,10.800,8.100,0.000,0.000,0.000,0.000,18.900,No
 Zone Internal Gains Nominal, BREAK_ROOM_38,34.77,3.0,11.589,8.629E-002,8.100,15.000,0.000,0.000,0.000,0.000,23.100,No
 Zone Internal Gains Nominal, STORAGE_39,23.10,1.0,23.101,4.329E-002,5.400,1.100,0.000,0.000,0.000,0.000,6.500,No
 Zone Internal Gains Nominal, OFFICE_PRIVATE_40,19.95,1.0,19.945,5.014E-002,10.800,8.100,0.000,0.000,0.000,0.000,18.900,No
 Zone Internal Gains Nominal, STORAGE_40,16.43,1.0,16.435,6.085E-002,5.400,1.100,0.000,0.000,0.000,0.000,6.500,No
 Zone Internal Gains Nominal, LOBBY_41,36.73,1.0,36.733,2.722E-002,12.900,3.200,0.000,0.000,0.000,0.000,16.100,No
 Zone Internal Gains Nominal, CONFERENCE_41,24.59,4.0,6.148,0.163,10.800,8.100,0.000,0.000,0.000,0.000,18.900,No
 Zone Internal Gains Nominal, MECHANICAL_41,35.21,1.0,35.210,2.840E-002,5.400,0.000,0.000,0.000,0.000,0.000,5.400,No
 Zone Internal Gains Nominal, OFFICE_PRIVATE_42,21.74,1.0,21.742,4.599E-002,10.800,8.100,0.000,0.000,0.000,0.000,18.900,No
 Zone Internal Gains Nominal, BREAK_ROOM_44,27.61,2.0,13.806,7.243E-002,8.100,15.000,0.000,0.000,0.000,0.000,23.100,No
 Zone Internal Gains Nominal, LOBBY_47,28.57,1.0,28.565,3.501E-002,12.900,3.200,0.000,0.000,0.000,0.000,16.100,No
 Zone Internal Gains Nominal, LOBBY_48,25.65,1.0,25.648,3.899E-002,12.900,3.200,0.000,0.000,0.000,0.000,16.100,No
 Zone Internal Gains Nominal, LOBBY_50,40.89,2.0,20.445,4.891E-002,12.900,3.200,0.000,0.000,0.000,0.000,16.100,No
 Zone Internal Gains Nominal, BREAK_ROOM_50,23.87,2.0,11.935,8.378E-002,8.100,15.000,0.000,0.000,0.000,0.000,23.100,No
 Zone Internal Gains Nominal, MECHANICAL_51,23.77,1.0,23.771,4.207E-002,5.400,0.000,0.000,0.000,0.000,0.000,5.400,No
 Zone Internal Gains Nominal, OFFICE_PRIVATE_51,24.06,1.0,24.060,4.156E-002,10.800,8.100,0.000,0.000,0.000,0.000,18.900,No
 Zone Internal Gains Nominal, CONFERENCE_53,37.04,7.0,5.291,0.189,10.800,8.100,0.000,0.000,0.000,0.000,18.900,No
 Zone Internal Gains Nominal, STORAGE_54,23.39,1.0,23.395,4.274E-002,5.400,1.100,0.000,0.000,0.000,0.000,6.500,No
 Zone Internal Gains Nominal, STORAGE_56,17.08,1.0,17.081,5.854E-002,5.400,1.100,0.000,0.000,0.000,0.000,6.500,No
 Zone Internal Gains Nominal, OFFICE_PRIVATE_57,20.10,1.0,20.101,4.975E-002,10.800,8.100,0.000,0.000,0.000,0.000,18.900,No
 Zone Internal Gains Nominal, CONFERENCE_59,21.81,4.0,5.451,0.183,10.800,8.100,0.000,0.000,0.000,0.000,18.900,No
 Zone Internal Gains Nominal, BREAK_ROOM_59,33.74,3.0,11.248,8.891E-002,8.100,15.000,0.000,0.000,0.000,0.000,23.100,No
 Zone Internal Gains Nominal, MECHANICAL_59,20.84,1.0,20.837,4.799E-002,5.400,0.000,0.000,0.000,0.000,0.000,5.400,No
 Zone Internal Gains Nominal, STORAGE_60,28.40,1.0,28.404,3.521E-002,5.400,1.100,0.000,0.000,0.000,0.000,6.500,No
 Zone Internal Gains Nominal, STORAGE_61,24.46,1.0,24.457,4.089E-002,5.400,1.100,0.000,0.000,0.000,0.000,6.500,No
 Zone Internal Gains Nominal, OFFICE_PRIVATE_62,22.39,1.0,22.386,4.467E-002,10.800,8.100,0.000,0.000,0.000,0.000,18.900,No
 Zone Internal Gains Nominal, CONFERENCE_63,32.95,6.0,5.491,0.182,10.800,8.100,0.000,0.000,0.000,0.000,18.900,No
 Zone Internal Gains Nominal, OFFICE_PRIVATE_63,21.73,1.0,21.727,4.603E-002,10.800,8.100,0.000,0.000,0.000,0.000,18.900,No
 Zone Internal Gains Nominal, BREAK_ROOM_64,24.07,2.0,12.036,8.309E-002,8.100,15.000,0.000,0.000,0.000,0.000,23.100,No
 Zone Internal Gains Nominal, MECHANICAL_64,37.59,1.0,37.592,2.660E-002,5.400,0.000,0.000,0.000,0.000,0.000,5.400,No
 Zone Internal Gains Nominal, STORAGE_64,11.04,1.0,11.042,9.057E-002,5.400,1.100,0.000,0.000,0.000,0.000,6.500,No
 Zone Internal Gains Nominal, CONFERENCE_65,29.07,5.0,5.815,0.172,10.800,8.100,0.000,0.000,0.000,0.000,18.900,No
 Zone Internal Gains Nominal, LOBBY_66,45.33,2.0,22.666,4.412E-002,12.900,3.200,0.000,0.000,0.000,0.000,16.100,No
 Zone Internal Gains Nominal, CONFERENCE_66,28.16,5.0,5.633,0.178,10.800,8.100,0.000,0.000,0.000,0.000,18.900,No
 Zone Internal Gains Nominal, CONFERENCE_68,28.68,5.0,5.736,0.174,10.800,8.100,0.000,0.000,0.000,0.000,18.900,No
 Zone Internal Gains Nominal, MECHANICAL_69,33.39,1.0,33.389,2.995E-002,5.400,0.000,0.000,0.000,0.000,0.000,5.400,No
 Zone Internal Gains Nominal, STORAGE_70,26.53,1.0,26.532,3.769E-002,5.400,1.100,0.000,0.000,0.000,0.000,6.500,No
 Zone Internal Gains Nominal, BREAK_ROOM_71,16.67,1.0,16.674,5.997E-002,8.100,15.000,0.000,0.000,0.000,0.000,23.100,No
 Zone Internal Gains Nominal, BREAK_ROOM_72,35.98,3.0,11.992,8.339E-002,8.100,15.000,0.000,0.000,0.000,0.000,23.100,No
 Zone Internal Gains Nominal, CONFERENCE_73,20.89,4.0,5.221,0.192,10.800,8.100,0.000,0.000,0.000,0.000,18.900,No
 Zone Internal Gains Nominal, OFFICE_PRIVATE_73,17.52,1.0,17.523,5.707E-002,10.800,8.100,0.000,0.000,0.000,0.000,18.900,No
 Zone Internal Gains Nominal, BREAK_ROOM_74,27.86,2.0,13.930,7.179E-002,8.100,15.000,0.000,0.000,0.000,0.000,23.100,No
 Zone Internal Gains Nominal, OFFICE_PRIVATE_74,19.49,1.0,19.491,5.130E-002,10.800,8.100,0.000,0.000,0.000,0.000,18.900,No
 Zone Internal Gains Nominal, BREAK_ROOM_75,21.93,2.0,10.964,9.121E-002,8.100,15.000,0.000,0.000,0.000,0.000,23.100,No
 Zone Internal Gains Nominal, CONFERENCE_76,43.20,8.0,5.400,0.185,10.800,8.100,0.000,0.000,0.000,0.000,18.900,No
 Zone Internal Gains Nominal, MECHANICAL_76,30.25,1.0,30.252,3.306E-002,5.400,0.000,0.000,0.000,0.000,0.000,5.400,No
 Zone Internal Gains Nominal, BREAK_ROOM_77,31.79,3.0,10.596,9.438E-002,8.100,15.000,0.000,0.000,0.000,0.000,23.100,No
 Zone Internal Gains Nominal, MECHANICAL_77,20.73,1.0,20.733,4.823E-002,5.400,0.000,0.000,0.000,0.000,0.000,5.400,No
 Zone Internal Gains Nominal, CONFERENCE_78,30.25,6.0,5.042,0.198,10.800,8.100,0.000,0.000,0.000,0.000,18.900,No
 Zone Internal Gains Nominal, MECHANICAL_78,32.86,1.0,32.856,3.044E-002,5.400,0.000,0.000,0.000,0.000,0.000,5.400,No
 Zone Internal Gains Nominal, STORAGE_78,10.49,1.0,10.490,9.533E-002,5.400,1.100,0.000,0.000,0.000,0.000,6.500,No
 Zone Internal Gains Nominal, MECHANICAL_79,34.16,1.0,34.156,2.928E-002,5.400,0.000,0.000,0.000,0.000,0.000,5.400,No
 Zone Internal Gains Nominal, LOBBY_82,35.51,1.0,35.508,2.816E-002,12.900,3.200,0.000,0.000,0.000,0.000,16.100,No
 Zone Internal Gains Nominal, LOBBY_83,44.84,2.0,22.422,4.460E-002,12.900,3.200,0.000,0.000,0.000,0.000,16.100,No
 Zone Internal Gains Nominal, MECHANICAL_85,39.14,1.0,39.141,2.555E-002,5.400,0.000,0.000,0.000,0.000,0.000,5.400,No
 Zone Internal Gains Nominal, STORAGE_85,12.73,1.0,12.726,7.858E-002,5.400,1.100,0.000,0.000,0.000,0.000,6.500,No
 Zone Internal Gains Nominal, CONFERENCE_86,22.11,4.0,5.527,0.181,10.800,8.100,0.000,0.000,0.000,0.000,18.900,No
 Zone Internal Gains Nominal, STORAGE_86,19.99,1.0,19.991,5.002E-002,5.400,1.100,0.000,0.000,0.000,0.000,6.500,No
 Zone Internal Gains Nominal, BREAK_ROOM_87,20.47,2.0,10.234,9.771E-002,8.100,15.000,0.000,0.000,0.000,0.000,23.100,No
 Zone Internal Gains Nominal, MECHANICAL_87,31.28,1.0,31.280,3.197E-002,5.400,0.000,0.000,0.000,0.000,0.000,5.400,No
 Zone Internal Gains Nominal, OFFICE_PRIVATE_87,16.23,1.0,16.232,6.161E-002,10.800,8.100,0.000,0.000,0.000,0.000,18.900,No
 Zone Internal Gains Nominal, LOBBY_88,28.40,1.0,28.404,3.521E-002,12.900,3.200,0.000,0.000,0.000,0.000,16.100,No
 Zone Internal Gains Nominal, BREAK_ROOM_88,25.18,2.0,12.588,7.944E-002,8.100,15.000,0.000,0.000,0.000,0.000,23.100,No
 Zone Internal Gains Nominal, STORAGE_88,17.36,1.0,17.360,5.760E-002,5.400,1.100,0.000,0.000,0.000,0.000,6.500,No
 Zone Internal Gains Nominal, LOBBY_91,26.39,1.0,26.385,3.790E-002,12.900,3.200,0.000,0.000,0.000,0.000,16.100,No
 Zone Internal Gains Nominal, BREAK_ROOM_91,22.55,2.0,11.277,8.867E-002,8.100,15.000,0.000,0.000,0.000,0.000,23.100,No
 Zone Internal Gains Nominal, STORAGE_91,17.12,1.0,17.121,5.841E-002,5.400,1.100,0.000,0.000,0.000,0.000,6.500,No
 Zone Internal Gains Nominal, CONFERENCE_93,26.37,5.0,5.274,0.190,10.800,8.100,0.000,0.000,0.000,0.000,18.900,No
 Zone Internal Gains Nominal, OFFICE_PRIVATE_93,16.32,1.0,16.317,6.129E-002,10.800,8.100,0.000,0.000,0.000,0.000,18.900,No
 Zone Internal Gains Nominal, STORAGE_94,15.38,1.0,15.383,6.501E-002,5.400,1.100,0.000,0.000,0.000,0.000,6.500,No
 Zone Internal Gains Nominal, MECHANICAL_95,31.02,1.0,31.017,3.224E-002,5.400,0.000,0.000,0.000,0.000,0.000,5.400,No
 Zone Internal Gains Nominal, LOBBY_96,36.87,1.0,36.873,2.712E-002,12.900,3.200,0.000,0.000,0.000,0.000,16.100,No
 Zone Internal Gains Nominal, LOBBY_97,32.54,1.0,32.540,3.073E-002,12.900,3.200,0.000,0.000,0.000,0.000,16.100,No
 Zone Internal Gains Nominal, OFFICE_PRIVATE_97,20.69,1.0,20.693,4.833E-002,10.800,8.100,0.000,0.000,0.000,0.000,18.900,No
 Zone Internal Gains Nominal, STORAGE_97,13.60,1.0,13.599,7.354E-002,5.400,1.100,0.000,0.000,0.000,0.000,6.500,No
 Zone Internal Gains Nominal, LOBBY_98,37.71,1.0,37.712,2.652E-002,12.900,3.200,0.000,0.000,0.000,0.000,16.100,No
 Zone Internal Gains Nominal, BREAK_ROOM_98,25.72,2.0,12.862,7.775E-002,8.100,15.000,0.000,0.000,0.000,0.000,23.100,No
 Zone Internal Gains Nominal, STORAGE_99,10.09,1.0,10.093,9.907E-002,5.400,1.100,0.000,0.000,0.000,0.000,6.500,No
! <People Internal Gains Nominal>,Name,Schedule Name,Zone Name,Zone Floor Area {m2},# Zone Occupants,Number of People {},People/Floor Area {person/m2},Floor Area per person {m2/person},Fraction Radiant,Fraction Convected,Sensible Fraction Calculation,Activity level,ASHRAE 55 Warnings,Carbon Dioxide Generation Rate,Minimum Number of People for All Day Types,Maximum Number of People for All Day Types,Minimum Number of People for Weekdays, Maximum Number of People for Weekdays, Minimum Number of People for Weekends/Holidays, Maximum Number of People for Weekends /Holidays,Minimum Number of People for Summer Design Days, Maximum Number of People for Summer Design Days,Minimum Number of People for Winter Design Days, Maximum Number of People for Winter Design Days
 People Internal Gains Nominal, CONFERENCE_0_PEOPLE,CONFERENCE_OCCUPANCY,CONFERENCE_0,30.13,6.0,6.0,0.199,5.022,0.300,0.700,0.100,CONFERENCE_ACTIVITY,No,3.8200E-008,0.0,6.0,0.0,6.0,0.0,0.6,0.0,0.0,0.0,0.0,
 People Internal Gains Nominal, OFFICE_PRIVATE_0_PEOPLE,OFFICE_OPEN_OCCUPANCY,OFFICE_PRIVATE_0,16.20,1.0,1.0,6.174E-002,16.197,0.300,0.700,0.100,OFFICE_OPEN_ACTIVITY,No,3.8200E-008,0.0,1.0,0.0,1.0,0.0,0.1,0.0,0.0,0.0,0.0,
 People Internal Gains Nominal, BREAK_ROOM_1_PEOPLE,BREAK_ROOM_OCCUPANCY,BREAK_ROOM_1,17.80,1.0,1.0,5.619E-002,17.796,0.300,0.700,0.100,BREAK_ROOM_ACTIVITY,No,3.8200E-008,0.2,0.2,0.2,0.2,0.2,0.2,0.2,0.2,0.2,0.2,
 People Internal Gains Nominal, BREAK_ROOM_3_PEOPLE,BREAK_ROOM_OCCUPANCY,BREAK_ROOM_3,30.77,3.0,3.0,9.750E-002,10.256,0.300,0.700,0.100,BREAK_ROOM_ACTIVITY,No,3.8200E-008,0.6,0.6,0.6,0.6,0.6,0.6,0.6,0.6,0.6,0.6,
 People Internal Gains Nominal, LOBBY_5_PEOPLE,LOBBY_OCCUPANCY,LOBBY_5,34.39,1.0,1.0,2.908E-002,34.387,0.300,0.700,0.100,LOBBY_ACTIVITY,No,3.8200E-008,0.2,0.2,0.2,0.2,0.2,0.2,0.2,0.2,0.2,0.2,
 People Internal Gains Nominal, OFFICE_PRIVATE_5_PEOPLE,OFFICE_OPEN_OCCUPANCY,OFFICE_PRIVATE_5,18.78,1.0,1.0,5.324E-002,18.784,0.300,0.700,0.100,OFFICE_OPEN_ACTIVITY,No,3.8200E-008,0.0,1.0,0.0,1.0,0.0,0.1,0.0,0.0,0.0,0.0,
 People Internal Gains Nominal, LOBBY_6_PEOPLE,LOBBY_OCCUPANCY,LOBBY_6,39.11,1.0,1.0,2.557E-002,39.113,0.300,0.700,0.100,LOBBY_ACTIVITY,No,3.8200E-008,0.2,0.2,0.2,0.2,0.2,0.2,0.2,0.2,0.2,0.2,
 People Internal Gains Nominal, BREAK_ROOM_6_PEOPLE,BREAK_ROOM_OCCUPANCY,BREAK_ROOM_6,29.40,2.0,2.0,6.803E-002,14.700,0.300,0.700,0.100,BREAK_ROOM_ACTIVITY,No,3.8200E-008,0.4,0.4,0.4,0.4,0.4,0.4,0.4,0.4,0.4,0.4,
 People Internal Gains Nominal, BREAK_ROOM_7_PEOPLE,BREAK_ROOM_OCCUPANCY,BREAK_ROOM_7,27.80,2.0,2.0,7.195E-002,13.898,0.300,0.700,0.100,BREAK_ROOM_ACTIVITY,No,3.8200E-008,0.4,0.4,0.4,0.4,0.4,0.4,0.4,0.4,0.4,0.4,
 People Internal Gains Nominal, MECHANICAL_9_PEOPLE,MECHANICAL_OCCUPANCY,MECHANICAL_9,25.41,1.0,1.0,3.936E-002,25.405,0.300,0.700,0.100,MECHANICAL_ACTIVITY,No,3.8200E-008,0.2,0.2,0.2,0.2,0.2,0.2,0.2,0.2,0.2,0.2,
 People Internal Gains Nominal, LOBBY_11_PEOPLE,LOBBY_OCCUPANCY,LOBBY_11,40.14,2.0,2.0,4.983E-002,20.070,0.300,0.700,0.100,LOBBY_ACTIVITY,No,3.8200E-008,0.4,0.4,0.4,0.4,0.4,0.4,0.4,0.4,0.4,0.4,
 People Internal Gains Nominal, MECHANICAL_11_PEOPLE,MECHANICAL_OCCUPANCY,MECHANICAL_11,25.73,1.0,1.0,3.887E-002,25.729,0.300,0.700,0.100,MECHANICAL_ACTIVITY,No,3.8200E-008,0.2,0.2,0.2,0.2,0.2,0.2,0.2,0.2,0.2,0.2,
 People Internal Gains Nominal, CONFERENCE_12_PEOPLE,CONFERENCE_OCCUPANCY,CONFERENCE_12,26.45,5.0,5.0,0.189,5.290,0.300,0.700,0.100,CONFERENCE_ACTIVITY,No,3.8200E-008,0.0,5.0,0.0,5.0,0.0,0.5,0.0,0.0,0.0,0.0,
 People Internal Gains Nominal, BREAK_ROOM_12_PEOPLE,BREAK_ROOM_OCCUPANCY,BREAK_ROOM_12,31.08,3.0,3.0,9.654E-002,10.358,0.300,0.700,0.100,BREAK_ROOM_ACTIVITY,No,3.8200E-008,0.6,0.6,0.6,0.6,0.6,0.6,0.6,0.6,0.6,0.6,
 People Internal Gains Nominal, MECHANICAL_12_PEOPLE,MECHANICAL_OCCUPANCY,MECHANICAL_12,18.51,1.0,1.0,5.402E-002,18.512,0.300,0.700,0.100,MECHANICAL_ACTIVITY,No,3.8200E-008,0.2,0.2,0.2,0.2,0.2,0.2,0.2,0.2,0.2,0.2,
 People Internal Gains Nominal, BREAK_ROOM_13_PEOPLE,BREAK_ROOM_OCCUPANCY,BREAK_ROOM_13,33.02,3.0,3.0,9.085E-002,11.007,0.300,0.700,0.100,BREAK_ROOM_ACTIVITY,No,3.8200E-008,0.6,0.6,0.6,0.6,0.6,0.6,0.6,0.6,0.6,0.6,
 People Internal Gains Nominal, OFFICE_PRIVATE_14_PEOPLE,OFFICE_OPEN_OCCUPANCY,OFFICE_PRIVATE_14,18.17,1.0,1.0,5.505E-002,18.166,0.300,0.700,0.100,OFFICE_OPEN_ACTIVITY,No,3.8200E-008,0.0,1.0,0.0,1.0,0.0,0.1,0.0,0.0,0.0,0.0,
 People Internal Gains Nominal, BREAK_ROOM_15_PEOPLE,BREAK_ROOM_OCCUPANCY,BREAK_ROOM_15,33.27,3.0,3.0,9.017E-002,11.090,0.300,0.700,0.100,BREAK_ROOM_ACTIVITY,No,3.8200E-008,0.6,0.6,0.6,0.6,0.6,0.6,0.6,0.6,0.6,0.6,
 People Internal Gains Nominal, OFFICE_PRIVATE_15_PEOPLE,OFFICE_OPEN_OCCUPANCY,OFFICE_PRIVATE_15,19.31,1.0,1.0,5.178E-002,19.311,0.300,0.700,0.100,OFFICE_OPEN_ACTIVITY,No,3.8200E-008,0.0,1.0,0.0,1.0,0.0,0.1,0.0,0.0,0.0,0.0,
 People Internal Gains Nominal, MECHANICAL_16_PEOPLE,MECHANICAL_OCCUPANCY,MECHANICAL_16,20.77,1.0,1.0,4.814E-002,20.772,0.300,0.700,0.100,MECHANICAL_ACTIVITY,No,3.8200E-008,0.2,0.2,0.2,0.2,0.2,0.2,0.2,0.2,0.2,0.2,
 People Internal Gains Nominal, BREAK_ROOM_18_PEOPLE,BREAK_ROOM_OCCUPANCY,BREAK_ROOM_18,26.96,2.0,2.0,7.418E-002,13.481,0.300,0.700,0.100,BREAK_ROOM_ACTIVITY,No,3.8200E-008,0.4,0.4,0.4,0.4,0.4,0.4,0.4,0.4,0.4,0.4,
 People Internal Gains Nominal, MECHANICAL_18_PEOPLE,MECHANICAL_OCCUPANCY,MECHANICAL_18,37.44,1.0,1.0,2.671E-002,37.441,0.300,0.700,0.100,MECHANICAL_ACTIVITY,No,3.8200E-008,0.2,0.2,0.2,0.2,0.2,0.2,0.2,0.2,0.2,0.2,
 People Internal Gains Nominal, CONFERENCE_19_PEOPLE,CONFERENCE_OCCUPANCY,CONFERENCE_19,38.91,7.0,7.0,0.180,5.559,0.300,0.700,0.100,CONFERENCE_ACTIVITY,No,3.8200E-008,0.0,7.0,0.0,7.0,0.0,0.7,0.0,0.0,0.0,0.0,
 People Internal Gains Nominal, BREAK_ROOM_19_PEOPLE,BREAK_ROOM_OCCUPANCY,BREAK_ROOM_19,19.55,1.0,1.0,5.114E-002,19.554,0.300,0.700,0.100,BREAK_ROOM_ACTIVITY,No,3.8200E-008,0.2,0.2,0.2,0.2,0.2,0.2,0.2,0.2,0.2,0.2,
 People Internal Gains Nominal, MECHANICAL_19_PEOPLE,MECHANICAL_OCCUPANCY,MECHANICAL_19,22.79,1.0,1.0,4.388E-002,22.787,0.300,0.700,0.100,MECHANICAL_ACTIVITY,No,3.8200E-008,0.2,0.2,0.2,0.2,0.2,0.2,0.2,0.2,0.2,0.2,
 People Internal Gains Nominal, CONFERENCE_20_PEOPLE,CONFERENCE_OCCUPANCY,CONFERENCE_20,27.37,5.0,5.0,0.183,5.475,0.300,0.700,0.100,CONFERENCE_ACTIVITY,No,3.8200E-008,0.0,5.0,0.0,5.0,0.0,0.5,0.0,0.0,0.0,0.0,
 People Internal Gains Nominal, MECHANICAL_20_PEOPLE,MECHANICAL_OCCUPANCY,MECHANICAL_20,28.82,1.0,1.0,3.470E-002,28.817,0.300,0.700,0.100,MECHANICAL_ACTIVITY,No,3.8200E-008,0.2,0.2,0.2,0.2,0.2,0.2,0.2,0.2,0.2,0.2,
 People Internal Gains Nominal, OFFICE_PRIVATE_20_PEOPLE,OFFICE_OPEN_OCCUPANCY,OFFICE_PRIVATE_20,15.44,1.0,1.0,6.475E-002,15.443,0.300,0.700,0.100,OFFICE_OPEN_ACTIVITY,No,3.8200E-008,0.0,1.0,0.0,1.0,0.0,0.1,0.0,0.0,0.0,0.0,
 People Internal Gains Nominal, MECHANICAL_21_PEOPLE,MECHANICAL_OCCUPANCY,MECHANICAL_21,28.89,1.0,1.0,3.462E-002,28.889,0.300,0.700,0.100,MECHANICAL_ACTIVITY,No,3.8200E-008,0.2,0.2,0.2,0.2,0.2,0.2,0.2,0.2,0.2,0.2,
 People Internal Gains Nominal, STORAGE_21_PEOPLE,STORAGE_OCCUPANCY,STORAGE_21,21.82,1.0,1.0,4.584E-002,21.816,0.300,0.700,0.100,STORAGE_ACTIVITY,No,3.8200E-008,0.2,0.2,0.2,0.2,0.2,0.2,0.2,0.2,0.2,0.2,
 People Internal Gains Nominal, CONFERENCE_22_PEOPLE,CONFERENCE_OCCUPANCY,CONFERENCE_22,32.74,6.0,6.0,0.183,5.456,0.300,0.700,0.100,CONFERENCE_ACTIVITY,No,3.8200E-008,0.0,6.0,0.0,6.0,0.0,0.6,0.0,0.0,0.0,0.0,
 People Internal Gains Nominal, CONFERENCE_23_PEOPLE,CONFERENCE_OCCUPANCY,CONFERENCE_23,32.43,6.0,6.0,0.185,5.405,0.300,0.700,0.100,CONFERENCE_ACTIVITY,No,3.8200E-008,0.0,6.0,0.0,6.0,0.0,0.6,0.0,0.0,0.0,0.0,
 People Internal Gains Nominal, STORAGE_24_PEOPLE,STORAGE_OCCUPANCY,STORAGE_24,26.82,1.0,1.0,3.728E-002,26.821,0.300,0.700,0.100,STORAGE_ACTIVITY,No,3.8200E-008,0.2,0.2,0.2,0.2,0.2,0.2,0.2,0.2,0.2,0.2,
 People Internal Gains Nominal, BREAK_ROOM_27_PEOPLE,BREAK_ROOM_OCCUPANCY,BREAK_ROOM_27,29.82,2.0,2.0,6.707E-002,14.909,0.300,0.700,0.100,BREAK_ROOM_ACTIVITY,No,3.8200E-008,0.4,0.4,0.4,0.4,0.4,0.4,0.4,0.4,0.4,0.4,
 People Internal Gains Nominal, CONFERENCE_28_PEOPLE,CONFERENCE_OCCUPANCY,CONFERENCE_28,33.80,6.0,6.0,0.178,5.634,0.300,0.700,0.100,CONFERENCE_ACTIVITY,No,3.8200E-008,0.0,6.0,0.0,6.0,0.0,0.6,0.0,0.0,0.0,0.0,
 People Internal Gains Nominal, OFFICE_PRIVATE_28_PEOPLE,OFFICE_OPEN_OCCUPANCY,OFFICE_PRIVATE_28,22.03,1.0,1.0,4.539E-002,22.030,0.300,0.700,0.100,OFFICE_OPEN_ACTIVITY,No,3.8200E-008,0.0,1.0,0.0,1.0,0.0,0.1,0.0,0.0,0.0,0.0,
 People Internal Gains Nominal, LOBBY_29_PEOPLE,LOBBY_OCCUPANCY,LOBBY_29,25.07,1.0,1.0,3.988E-002,25.073,0.300,0.700,0.100,LOBBY_ACTIVITY,No,3.8200E-008,0.2,0.2,0.2,0.2,0.2,0.2,0.2,0.2,0.2,0.2,
 People Internal Gains Nominal, MECHANICAL_30_PEOPLE,MECHANICAL_OCCUPANCY,MECHANICAL_30,30.48,1.0,1.0,3.281E-002,30.477,0.300,0.700,0.100,MECHANICAL_ACTIVITY,No,3.8200E-008,0.2,0.2,0.2,0.2,0.2,0.2,0.2,0.2,0.2,0.2,
 People Internal Gains Nominal, LOBBY_31_PEOPLE,LOBBY_OCCUPANCY,LOBBY_31,27.19,1.0,1.0,3.678E-002,27.192,0.300,0.700,0.100,LOBBY_ACTIVITY,No,3.8200E-008,0.2,0.2,0.2,0.2,0.2,0.2,0.2,0.2,0.2,0.2,
 People Internal Gains Nominal, CONFERENCE_31_PEOPLE,CONFERENCE_OCCUPANCY,CONFERENCE_31,31.48,6.0,6.0,0.191,5.247,0.300,0.700,0.100,CONFERENCE_ACTIVITY,No,3.8200E-008,0.0,6.0,0.0,6.0,0.0,0.6,0.0,0.0,0.0,0.0,
 People Internal Gains Nominal, OFFICE_PRIVATE_32_PEOPLE,OFFICE_OPEN_OCCUPANCY,OFFICE_PRIVATE_32,25.74,1.0,1.0,3.885E-002,25.740,0.300,0.700,0.100,OFFICE_OPEN_ACTIVITY,No,3.8200E-008,0.0,1.0,0.0,1.0,0.0,0.1,0.0,0.0,0.0,0.0,
 People Internal Gains Nominal, STORAGE_32_PEOPLE,STORAGE_OCCUPANCY,STORAGE_32,16.55,1.0,1.0,6.043E-002,16.549,0.300,0.700,0.100,STORAGE_ACTIVITY,No,3.8200E-008,0.2,0.2,0.2,0.2,0.2,0.2,0.2,0.2,0.2,0.2,
 People Internal Gains Nominal, CONFERENCE_34_PEOPLE,CONFERENCE_OCCUPANCY,CONFERENCE_34,44.64,8.0,8.0,0.179,5.581,0.300,0.700,0.100,CONFERENCE_ACTIVITY,No,3.8200E-008,0.0,8.0,0.0,8.0,0.0,0.8,0.0,0.0,0.0,0.0,
 People Internal Gains Nominal, OFFICE_PRIVATE_34_PEOPLE,OFFICE_OPEN_OCCUPANCY,OFFICE_PRIVATE_34,15.97,1.0,1.0,6.261E-002,15.972,0.300,0.700,0.100,OFFICE_OPEN_ACTIVITY,No,3.8200E-008,0.0,1.0,0.0,1.0,0.0,0.1,0.0,0.0,0.0,0.0,
 People Internal Gains Nominal, MECHANICAL_35_PEOPLE,MECHANICAL_OCCUPANCY,MECHANICAL_35,18.33,1.0,1.0,5.455E-002,18.333,0.300,0.700,0.100,MECHANICAL_ACTIVITY,No,3.8200E-008,0.2,0.2,0.2,0.2,0.2,0.2,0.2,0.2,0.2,0.2,
 People Internal Gains Nominal, CONFERENCE_36_PEOPLE,CONFERENCE_OCCUPANCY,CONFERENCE_36,32.95,6.0,6.0,0.182,5.492,0.300,0.700,0.100,CONFERENCE_ACTIVITY,No,3.8200E-008,0.0,6.0,0.0,6.0,0.0,0.6,0.0,0.0,0.0,0.0,
 People Internal Gains Nominal, STORAGE_36_PEOPLE,STORAGE_OCCUPANCY,STORAGE_36,20.15,1.0,1.0,4.964E-002,20.146,0.300,0.700,0.100,STORAGE_ACTIVITY,No,3.8200E-008,0.2,0.2,0.2,0.2,0.2,0.2,0.2,0.2,0.2,0.2,
 People Internal Gains Nominal, OFFICE_PRIVATE_37_PEOPLE,OFFICE_OPEN_OCCUPANCY,OFFICE_PRIVATE_37,25.84,1.0,1.0,3.870E-002,25.841,0.300,0.700,0.100,OFFICE_OPEN_ACTIVITY,No,3.8200E-008,0.0,1.0,0.0,1.0,0.0,0.1,0.0,0.0,0.0,0.0,
 People Internal Gains Nominal, BREAK_ROOM_38_PEOPLE,BREAK_ROOM_OCCUPANCY,BREAK_ROOM_38,34.77,3.0,3.0,8.629E-002,11.589,0.300,0.700,0.100,BREAK_ROOM_ACTIVITY,No,3.8200E-008,0.6,0.6,0.6,0.6,0.6,0.6,0.6,0.6,0.6,0.6,
 People Internal Gains Nominal, STORAGE_39_PEOPLE,STORAGE_OCCUPANCY,STORAGE_39,23.10,1.0,1.0,4.329E-002,23.101,0.300,0.700,0.100,STORAGE_ACTIVITY,No,3.8200E-008,0.2,0.2,0.2,0.2,0.2,0.2,0.2,0.2,0.2,0.2,
 People Internal Gains Nominal, OFFICE_PRIVATE_40_PEOPLE,OFFICE_OPEN_OCCUPANCY,OFFICE_PRIVATE_40,19.95,1.0,1.0,5.014E-002,19.945,0.300,0.700,0.100,OFFICE_OPEN_ACTIVITY,No,3.8200E-008,0.0,1.0,0.0,1.0,0.0,0.1,0.0,0.0,0.0,0.0,
 People Internal Gains Nominal, STORAGE_40_PEOPLE,STORAGE_OCCUPANCY,STORAGE_40,16.43,1.0,1.0,6.085E-002,16.435,0.300,0.700,0.100,STORAGE_ACTIVITY,No,3.8200E-008,0.2,0.2,0.2,0.2,0.2,0.2,0.2,0.2,0.2,0.2,
 People Internal Gains Nominal, LOBBY_41_PEOPLE,LOBBY_OCCUPANCY,LOBBY_41,36.73,1.0,1.0,2.722E-002,36.733,0.300,0.700,0.100,LOBBY_ACTIVITY,No,3.8200E-008,0.2,0.2,0.2,0.2,0.2,0.2,0.2,0.2,0.2,0.2,
 People Internal Gains Nominal, CONFERENCE_41_PEOPLE,CONFERENCE_OCCUPANCY,CONFERENCE_41,24.59,4.0,4.0,0.163,6.148,0.300,0.700,0.100,CONFERENCE_ACTIVITY,No,3.8200E-008,0.0,4.0,0.0,4.0,0.0,0.4,0.0,0.0,0.0,0.0,
 People Internal Gains Nominal, MECHANICAL_41_PEOPLE,MECHANICAL_OCCUPANCY,MECHANICAL_41,35.21,1.0,1.0,2.840E-002,35.210,0.300,0.700,0.100,MECHANICAL_ACTIVITY,No,3.8200E-008,0.2,0.2,0.2,0.2,0.2,0.2,0.2,0.2,0.2,0.2,
 People Internal Gains Nominal, OFFICE_PRIVATE_42_PEOPLE,OFFICE_OPEN_OCCUPANCY,OFFICE_PRIVATE_42,21.74,1.0,1.0,4.599E-002,21.742,0.300,0.700,0.100,OFFICE_OPEN_ACTIVITY,No,3.8200E-008,0.0,1.0,0.0,1.0,0.0,0.1,0.0,0.0,0.0,0.0,
 People Internal Gains Nominal, BREAK_ROOM_44_PEOPLE,BREAK_ROOM_OCCUPANCY,BREAK_ROOM_44,27.61,2.0,2.0,7.243E-002,13.806,0.300,0.700,0.100,BREAK_ROOM_ACTIVITY,No,3.8200E-008,0.4,0.4,0.4,0.4,0.4,0.4,0.4,0.4,0.4,0.4,
 People Internal Gains Nominal, LOBBY_47_PEOPLE,LOBBY_OCCUPANCY,LOBBY_47,28.57,1.0,1.0,3.501E-002,28.565,0.300,0.700,0.100,LOBBY_ACTIVITY,No,3.8200E-008,0.2,0.2,0.2,0.2,0.2,0.2,0.2,0.2,0.2,0.2,
 People Internal Gains Nominal, LOBBY_48_PEOPLE,LOBBY_OCCUPANCY,LOBBY_48,25.65,1.0,1.0,3.899E-002,25.648,0.300,0.700,0.100,LOBBY_ACTIVITY,No,3.8200E-008,0.2,0.2,0.2,0.2,0.2,0.2,0.2,0.2,0.2,0.2,
 People Internal Gains Nominal, LOBBY_50_PEOPLE,LOBBY_OCCUPANCY,LOBBY_50,40.89,2.0,2.0,4.891E-002,20.445,0.300,0.700,0.100,LOBBY_ACTIVITY,No,3.8200E-008,0.4,0.4,0.4,0.4,0.4,0.4,0.4,0.4,0.4,0.4,
 People Internal Gains Nominal, BREAK_ROOM_50_PEOPLE,BREAK_ROOM_OCCUPANCY,BREAK_ROOM_50,23.87,2.0,2.0,8.378E-002,11.935,0.300,0.700,0.100,BREAK_ROOM_ACTIVITY,No,3.8200E-008,0.4,0.4,0.4,0.4,0.4,0.4,0.4,0.4,0.4,0.4,
 People Internal Gains Nominal, MECHANICAL_51_PEOPLE,MECHANICAL_OCCUPANCY,MECHANICAL_51,23.77,1.0,1.0,4.207E-002,23.771,0.300,0.700,0.100,MECHANICAL_ACTIVITY,No,3.8200E-008,0.2,0.2,0.2,0.2,0.2,0.2,0.2,0.2,0.2,0.2,
 People Internal Gains Nominal, OFFICE_PRIVATE_51_PEOPLE,OFFICE_OPEN_OCCUPANCY,OFFICE_PRIVATE_51,24.06,1.0,1.0,4.156E-002,24.060,0.300,0.700,0.100,OFFICE_OPEN_ACTIVITY,No,3.8200E-008,0.0,1.0,0.0,1.0,0.0,0.1,0.0,0.0,0.0,0.0,
 People Internal Gains Nominal, CONFERENCE_53_PEOPLE,CONFERENCE_OCCUPANCY,CONFERENCE_53,37.04,7.0,7.0,0.189,5.291,0.300,0.700,0.100,CONFERENCE_ACTIVITY,No,3.8200E-008,0.0,7.0,0.0,7.0,0.0,0.7,0.0,0.0,0.0,0.0,
 People Internal Gains Nominal, STORAGE_54_PEOPLE,STORAGE_OCCUPANCY,STORAGE_54,23.39,1.0,1.0,4.274E-002,23.395,0.300,0.700,0.100,STORAGE_ACTIVITY,No,3.8200E-008,0.2,0.2,0.2,0.2,0.2,0.2,0.2,0.2,0.2,0.2,
 People Internal Gains Nominal, STORAGE_56_PEOPLE,STORAGE_OCCUPANCY,STORAGE_56,17.08,1.0,1.0,5.854E-002,17.081,0.300,0.700,0.100,STORAGE_ACTIVITY,No,3.8200E-008,0.2,0.2,0.2,0.2,0.2,0.2,0.2,0.2,0.2,0.2,
 People Internal Gains Nominal, OFFICE_PRIVATE_57_PEOPLE,OFFICE_OPEN_OCCUPANCY,OFFICE_PRIVATE_57,20.10,1.0,1.0,4.975E-002,20.101,0.300,0.700,0.100,OFFICE_OPEN_ACTIVITY,No,3.8200E-008,0.0,1.0,0.0,1.0,0.0,0.1,0.0,0.0,0.0,0.0,
 People Internal Gains Nominal, CONFERENCE_59_PEOPLE,CONFERENCE_OCCUPANCY,CONFERENCE_59,21.81,4.0,4.0,0.183,5.451,0.300,0.700,0.100,CONFERENCE_ACTIVITY,No,3.8200E-008,0.0,4.0,0.0,4.0,0.0,0.4,0.0,0.0,0.0,0.0,
 People Internal Gains Nominal, BREAK_ROOM_59_PEOPLE,BREAK_ROOM_OCCUPANCY,BREAK_ROOM_59,33.74,3.0,3.0,8.891E-002,11.248,0.300,0.700,0.100,BREAK_ROOM_ACTIVITY,No,3.8200E-008,0.6,0.6,0.6,0.6,0.6,0.6,0.6,0.6,0.6,0.6,
 People Internal Gains Nominal, MECHANICAL_59_PEOPLE,MECHANICAL_OCCUPANCY,MECHANICAL_59,20.84,1.0,1.0,4.799E-002,20.837,0.300,0.700,0.100,MECHANICAL_ACTIVITY,No,3.8200E-008,0.2,0.2,0.2,0.2,0.2,0.2,0.2,0.2,0.2,0.2,
 People Internal Gains Nominal, STORAGE_60_PEOPLE,STORAGE_OCCUPANCY,STORAGE_60,28.40,1.0,1.0,3.521E-002,28.404,0.300,0.700,0.100,STORAGE_ACTIVITY,No,3.8200E-008,0.2,0.2,0.2,0.2,0.2,0.2,0.2,0.2,0.2,0.2,
 People Internal Gains Nominal, STORAGE_61_PEOPLE,STORAGE_OCCUPANCY,STORAGE_61,24.46,1.0,1.0,4.089E-002,24.457,0.300,0.700,0.100,STORAGE_ACTIVITY,No,3.8200E-008,0.2,0.2,0.2,0.2,0.2,0.2,0.2,0.2,0.2,0.2,
 People Internal Gains Nominal, OFFICE_PRIVATE_62_PEOPLE,OFFICE_OPEN_OCCUPANCY,OFFICE_PRIVATE_62,22.39,1.0,1.0,4.467E-002,22.386,0.300,0.700,0.100,OFFICE_OPEN_ACTIVITY,No,3.8200E-008,0.0,1.0,0.0,1.0,0.0,0.1,0.0,0.0,0.0,0.0,
 People Internal Gains Nominal, CONFERENCE_63_PEOPLE,CONFERENCE_OCCUPANCY,CONFERENCE_63,32.95,6.0,6.0,0.182,5.491,0.300,0.700,0.100,CONFERENCE_ACTIVITY,No,3.8200E-008,0.0,6.0,0.0,6.0,0.0,0.6,0.0,0.0,0.0,0.0,
 People Internal Gains Nominal, OFFICE_PRIVATE_63_PEOPLE,OFFICE_OPEN_OCCUPANCY,OFFICE_PRIVATE_63,21.73,1.0,1.0,4.603E-002,21.727,0.300,0.700,0.100,OFFICE_OPEN_ACTIVITY,No,3.8200E-008,0.0,1.0,0.0,1.0,0.0,0.1,0.0,0.0,0.0,0.0,
 People Internal Gains Nominal, BREAK_ROOM_64_PEOPLE,BREAK_ROOM_OCCUPANCY,BREAK_ROOM_64,24.07,2.0,2.0,8.309E-002,12.036,0.300,0.700,0.100,BREAK_ROOM_ACTIVITY,No,3.8200E-008,0.4,0.4,0.4,0.4,0.4,0.4,0.4,0.4,0.4,0.4,
 People Internal Gains Nominal, MECHANICAL_64_PEOPLE,MECHANICAL_OCCUPANCY,MECHANICAL_64,37.59,1.0,1.0,2.660E-002,37.592,0.300,0.700,0.100,MECHANICAL_ACTIVITY,No,3.8200E-008,0.2,0.2,0.2,0.2,0.2,0.2,0.2,0.2,0.2,0.2,
 People Internal Gains Nominal, STORAGE_64_PEOPLE,STORAGE_OCCUPANCY,STORAGE_64,11.04,1.0,1.0,9.057E-002,11.042,0.300,0.700,0.100,STORAGE_ACTIVITY,No,3.8200E-008,0.2,0.2,0.2,0.2,0.2,0.2,0.2,0.2,0.2,0.2,
 People Internal Gains Nominal, CONFERENCE_65_PEOPLE,CONFERENCE_OCCUPANCY,CONFERENCE_65,29.07,5.0,5.0,0.172,5.815,0.300,0.700,0.100,CONFERENCE_ACTIVITY,No,3.8200E-008,0.0,5.0,0.0,5.0,0.0,0.5,0.0,0.0,0.0,0.0,
 People Internal Gains Nominal, LOBBY_66_PEOPLE,LOBBY_OCCUPANCY,LOBBY_66,45.33,2.0,2.0,4.412E-002,22.666,0.300,0.700,0.100,LOBBY_ACTIVITY,No,3.8200E-008,0.4,0.4,0.4,0.4,0.4,0.4,0.4,0.4,0.4,0.4,
 People Internal Gains Nominal, CONFERENCE_66_PEOPLE,CONFERENCE_OCCUPANCY,CONFERENCE_66,28.16,5.0,5.0,0.178,5.633,0.300,0.700,0.100,CONFERENCE_ACTIVITY,No,3.8200E-008,0.0,5.0,0.0,5.0,0.0,0.5,0.0,0.0,0.0,0.0,
 People Internal Gains Nominal, CONFERENCE_68_PEOPLE,CONFERENCE_OCCUPANCY,CONFERENCE_68,28.68,5.0,5.0,0.174,5.736,0.300,0.700,0.100,CONFERENCE_ACTIVITY,No,3.8200E-008,0.0,5.0,0.0,5.0,0.0,0.5,0.0,0.0,0.0,0.0,
 People Internal Gains Nominal, MECHANICAL_69_PEOPLE,MECHANICAL_OCCUPANCY,MECHANICAL_69,33.39,1.0,1.0,2.995E-002,33.389,0.300,0.700,0.100,MECHANICAL_ACTIVITY,No,3.8200E-008,0.2,0.2,0.2,0.2,0.2,0.2,0.2,0.2,0.2,0.2,
 People Internal Gains Nominal, STORAGE_70_PEOPLE,STORAGE_OCCUPANCY,STORAGE_70,26.53,1.0,1.0,3.769E-002,26.532,0.300,0.700,0.100,STORAGE_ACTIVITY,No,3.8200E-008,0.2,0.2,0.2,0.2,0.2,0.2,0.2,0.2,0.2,0.2,
 People Internal Gains Nominal, BREAK_ROOM_71_PEOPLE,BREAK_ROOM_OCCUPANCY,BREAK_ROOM_71,16.67,1.0,1.0,5.997E-002,16.674,0.300,0.700,0.100,BREAK_ROOM_ACTIVITY,No,3.8200E-008,0.2,0.2,0.2,0.2,0.2,0.2,0.2,0.2,0.2,0.2,
 People Internal Gains Nominal, BREAK_ROOM_72_PEOPLE,BREAK_ROOM_OCCUPANCY,BREAK_ROOM_72,35.98,3.0,3.0,8.339E-002,11.992,0.300,0.700,0.100,BREAK_ROOM_ACTIVITY,No,3.8200E-008,0.6,0.6,0.6,0.6,0.6,0.6,0.6,0.6,0.6,0.6,
 People Internal Gains Nominal, CONFERENCE_73_PEOPLE,CONFERENCE_OCCUPANCY,CONFERENCE_73,20.89,4.0,4.0,0.192,5.221,0.300,0.700,0.100,CONFERENCE_ACTIVITY,No,3.8200E-008,0.0,4.0,0.0,4.0,0.0,0.4,0.0,0.0,0.0,0.0,
 People Internal Gains Nominal, OFFICE_PRIVATE_73_PEOPLE,OFFICE_OPEN_OCCUPANCY,OFFICE_PRIVATE_73,17.52,1.0,1.0,5.707E-002,17.523,0.300,0.700,0.100,OFFICE_OPEN_ACTIVITY,No,3.8200E-008,0.0,1.0,0.0,1.0,0.0,0.1,0.0,0.0,0.0,0.0,
 People Internal Gains Nominal, BREAK_ROOM_74_PEOPLE,BREAK_ROOM_OCCUPANCY,BREAK_ROOM_74,27.86,2.0,2.0,7.179E-002,13.930,0.300,0.700,0.100,BREAK_ROOM_ACTIVITY,No,3.8200E-008,0.4,0.4,0.4,0.4,0.4,0.4,0.4,0.4,0.4,0.4,
 People Internal Gains Nominal, OFFICE_PRIVATE_74_PEOPLE,OFFICE_OPEN_OCCUPANCY,OFFICE_PRIVATE_74,19.49,1.0,1.0,5.130E-002,19.491,0.300,0.700,0.100,OFFICE_OPEN_ACTIVITY,No,3.8200E-008,0.0,1.0,0.0,1.0,0.0,0.1,0.0,0.0,0.0,0.0,
 People Internal Gains Nominal, BREAK_ROOM_75_PEOPLE,BREAK_ROOM_OCCUPANCY,BREAK_ROOM_75,21.93,2.0,2.0,9.121E-002,10.964,0.300,0.700,0.100,BREAK_ROOM_ACTIVITY,No,3.8200E-008,0.4,0.4,0.4,0.4,0.4,0.4,0.4,0.4,0.4,0.4,
 People Internal Gains Nominal, CONFERENCE_76_PEOPLE,CONFERENCE_OCCUPANCY,CONFERENCE_76,43.20,8.0,8.0,0.185,5.400,0.300,0.700,0.100,CONFERENCE_ACTIVITY,No,3.8200E-008,0.0,8.0,0.0,8.0,0.0,0.8,0.0,0.0,0.0,0.0,
 People Internal Gains Nominal, MECHANICAL_76_PEOPLE,MECHANICAL_OCCUPANCY,MECHANICAL_76,30.25,1.0,1.0,3.306E-002,30.252,0.300,0.700,0.100,MECHANICAL_ACTIVITY,No,3.8200E-008,0.2,0.2,0.2,0.2,0.2,0.2,0.2,0.2,0.2,0.2,
 People Internal Gains Nominal, BREAK_ROOM_77_PEOPLE,BREAK_ROOM_OCCUPANCY,BREAK_ROOM_77,31.79,3.0,3.0,9.438E-002,10.596,0.300,0.700,0.100,BREAK_ROOM_ACTIVITY,No,3.8200E-008,0.6,0.6,0.6,0.6,0.6,0.6,0.6,0.6,0.6,0.6,
 People Internal Gains Nominal, MECHANICAL_77_PEOPLE,MECHANICAL_OCCUPANCY,MECHANICAL_77,20.73,1.0,1.0,4.823E-002,20.733,0.300,0.700,0.100,MECHANICAL_ACTIVITY,No,3.8200E-008,0.2,0.2,0.2,0.2,0.2,0.2,0.2,0.2,0.2,0.2,
 People Internal Gains Nominal, CONFERENCE_78_PEOPLE,CONFERENCE_OCCUPANCY,CONFERENCE_78,30.25,6.0,6.0,0.198,5.042,0.300,0.700,0.100,CONFERENCE_ACTIVITY,No,3.8200E-008,0.0,6.0,0.0,6.0,0.0,0.6,0.0,0.0,0.0,0.0,
 People Internal Gains Nominal, MECHANICAL_78_PEOPLE,MECHANICAL_OCCUPANCY,MECHANICAL_78,32.86,1.0,1.0,3.044E-002,32.856,0.300,0.700,0.100,MECHANICAL_ACTIVITY,No,3.8200E-008,0.2,0.2,0.2,0.2,0.2,0.2,0.2,0.2,0.2,0.2,
 People Internal Gains Nominal, STORAGE_78_PEOPLE,STORAGE_OCCUPANCY,STORAGE_78,10.49,1.0,1.0,9.533E-002,10.490,0.300,0.700,0.100,STORAGE_ACTIVITY,No,3.8200E-008,0.2,0.2,0.2,0.2,0.2,0.2,0.2,0.2,0.2,0.2,
 People Internal Gains Nominal, MECHANICAL_79_PEOPLE,MECHANICAL_OCCUPANCY,MECHANICAL_79,34.16,1.0,1.0,2.928E-002,34.156,0.300,0.700,0.100,MECHANICAL_ACTIVITY,No,3.8200E-008,0.2,0.2,0.2,0.2,0.2,0.2,0.2,0.2,0.2,0.2,
 People Internal Gains Nominal, LOBBY_82_PEOPLE,LOBBY_OCCUPANCY,LOBBY_82,35.51,1.0,1.0,2.816E-002,35.508,0.300,0.700,0.100,LOBBY_ACTIVITY,No,3.8200E-008,0.2,0.2,0.2,0.2,0.2,0.2,0.2,0.2,0.2,0.2,
 People Internal Gains Nominal, LOBBY_83_PEOPLE,LOBBY_OCCUPANCY,LOBBY_83,44.84,2.0,2.0,4.460E-002,22.422,0.300,0.700,0.100,LOBBY_ACTIVITY,No,3.8200E-008,0.4,0.4,0.4,0.4,0.4,0.4,0.4,0.4,0.4,0.4,
 People Internal Gains Nominal, MECHANICAL_85_PEOPLE,MECHANICAL_OCCUPANCY,MECHANICAL_85,39.14,1.0,1.0,2.555E-002,39.141,0.300,0.700,0.100,MECHANICAL_ACTIVITY,No,3.8200E-008,0.2,0.2,0.2,0.2,0.2,0.2,0.2,0.2,0.2,0.2,
 People Internal Gains Nominal, STORAGE_85_PEOPLE,STORAGE_OCCUPANCY,STORAGE_85,12.73,1.0,1.0,7.858E-002,12.726,0.300,0.700,0.100,STORAGE_ACTIVITY,No,3.8200E-008,0.2,0.2,0.2,0.2,0.2,0.2,0.2,0.2,0.2,0.2,
 People Internal Gains Nominal, CONFERENCE_86_PEOPLE,CONFERENCE_OCCUPANCY,CONFERENCE_86,22.11,4.0,4.0,0.181,5.527,0.300,0.700,0.100,CONFERENCE_ACTIVITY,No,3.8200E-008,0.0,4.0,0.0,4.0,0.0,0.4,0.0,0.0,0.0,0.0,
 People Internal Gains Nominal, STORAGE_86_PEOPLE,STORAGE_OCCUPANCY,STORAGE_86,19.99,1.0,1.0,5.002E-002,19.991,0.300,0.700,0.100,STORAGE_ACTIVITY,No,3.8200E-008,0.2,0.2,0.2,0.2,0.2,0.2,0.2,0.2,0.2,0.2,
 People Internal Gains Nominal, BREAK_ROOM_87_PEOPLE,BREAK_ROOM_OCCUPANCY,BREAK_ROOM_87,20.47,2.0,2.0,9.771E-002,10.234,0.300,0.700,0.100,BREAK_ROOM_ACTIVITY,No,3.8200E-008,0.4,0.4,0.4,0.4,0.4,0.4,0.4,0.4,0.4,0.4,
 People Internal Gains Nominal, MECHANICAL_87_PEOPLE,MECHANICAL_OCCUPANCY,MECHANICAL_87,31.28,1.0,1.0,3.197E-002,31.280,0.300,0.700,0.100,MECHANICAL_ACTIVITY,No,3.8200E-008,0.2,0.2,0.2,0.2,0.2,0.2,0.2,0.2,0.2,0.2,
 People Internal Gains Nominal, OFFICE_PRIVATE_87_PEOPLE,OFFICE_OPEN_OCCUPANCY,OFFICE_PRIVATE_87,16.23,1.0,1.0,6.161E-002,16.232,0.300,0.700,0.100,OFFICE_OPEN_ACTIVITY,No,3.8200E-008,0.0,1.0,0.0,1.0,0.0,0.1,0.0,0.0,0.0,0.0,
 People Internal Gains Nominal, LOBBY_88_PEOPLE,LOBBY_OCCUPANCY,LOBBY_88,28.40,1.0,1.0,3.521E-002,28.404,0.300,0.700,0.100,LOBBY_ACTIVITY,No,3.8200E-008,0.2,0.2,0.2,0.2,0.2,0.2,0.2,0.2,0.2,0.2,
 People Internal Gains Nominal, BREAK_ROOM_88_PEOPLE,BREAK_ROOM_OCCUPANCY,BREAK_ROOM_88,25.18,2.0,2.0,7.944E-002,12.588,0.300,0.700,0.100,BREAK_ROOM_ACTIVITY,No,3.8200E-008,0.4,0.4,0.4,0.4,0.4,0.4,0.4,0.4,0.4,0.4,
 People Internal Gains Nominal, STORAGE_88_PEOPLE,STORAGE_OCCUPANCY,STORAGE_88,17.36,1.0,1.0,5.760E-002,17.360,0.300,0.700,0.100,STORAGE_ACTIVITY,No,3.8200E-008,0.2,0.2,0.2,0.2,0.2,0.2,0.2,0.2,0.2,0.2,
 People Internal Gains Nominal, LOBBY_91_PEOPLE,LOBBY_OCCUPANCY,LOBBY_91,26.39,1.0,1.0,3.790E-002,26.385,0.300,0.700,0.100,LOBBY_ACTIVITY,No,3.8200E-008,0.2,0.2,0.2,0.2,0.2,0.2,0.2,0.2,0.2,0.2,
 People Internal Gains Nominal, BREAK_ROOM_91_PEOPLE,BREAK_ROOM_OCCUPANCY,BREAK_ROOM_91,22.55,2.0,2.0,8.867E-002,11.277,0.300,0.700,0.100,BREAK_ROOM_ACTIVITY,No,3.8200E-008,0.4,0.4,0.4,0.4,0.4,0.4,0.4,0.4,0.4,0.4,
 People Internal Gains Nominal, STORAGE_91_PEOPLE,STORAGE_OCCUPANCY,STORAGE_91,17.12,1.0,1.0,5.841E-002,17.121,0.300,0.700,0.100,STORAGE_ACTIVITY,No,3.8200E-008,0.2,0.2,0.2,0.2,0.2,0.2,0.2,0.2,0.2,0.2,
 People Internal Gains Nominal, CONFERENCE_93_PEOPLE,CONFERENCE_OCCUPANCY,CONFERENCE_93,26.37,5.0,5.0,0.190,5.274,0.300,0.700,0.100,CONFERENCE_ACTIVITY,No,3.8200E-008,0.0,5.0,0.0,5.0,0.0,0.5,0.0,0.0,0.0,0.0,
 People Internal Gains Nominal, OFFICE_PRIVATE_93_PEOPLE,OFFICE_OPEN_OCCUPANCY,OFFICE_PRIVATE_93,16.32,1.0,1.0,6.129E-002,16.317,0.300,0.700,0.100,OFFICE_OPEN_ACTIVITY,No,3.8200E-008,0.0,1.0,0.0,1.0,0.0,0.1,0.0,0.0,0.0,0.0,
 People Internal Gains Nominal, STORAGE_94_PEOPLE,STORAGE_OCCUPANCY,STORAGE_94,15.38,1.0,1.0,6.501E-002,15.383,0.300,0.700,0.100,STORAGE_ACTIVITY,No,3.8200E-008,0.2,0.2,0.2,0.2,0.2,0.2,0.2,0.2,0.2,0.2,
 People Internal Gains Nominal, MECHANICAL_95_PEOPLE,MECHANICAL_OCCUPANCY,MECHANICAL_95,31.02,1.0,1.0,3.224E-002,31.017,0.300,0.700,0.100,MECHANICAL_ACTIVITY,No,3.8200E-008,0.2,0.2,0.2,0.2,0.2,0.2,0.2,0.2,0.2,0.2,
 People Internal Gains Nominal, LOBBY_96_PEOPLE,LOBBY_OCCUPANCY,LOBBY_96,36.87,1.0,1.0,2.712E-002,36.873,0.300,0.700,0.100,LOBBY_ACTIVITY,No,3.8200E-008,0.2,0.2,0.2,0.2,0.2,0.2,0.2,0.2,0.2,0.2,
 People Internal Gains Nominal, LOBBY_97_PEOPLE,LOBBY_OCCUPANCY,LOBBY_97,32.54,1.0,1.0,3.073E-002,32.540,0.300,0.700,0.100,LOBBY_ACTIVITY,No,3.8200E-008,0.2,0.2,0.2,0.2,0.2,0.2,0.2,0.2,0.2,0.2,
 People Internal Gains Nominal, OFFICE_PRIVATE_97_PEOPLE,OFFICE_OPEN_OCCUPANCY,OFFICE_PRIVATE_97,20.69,1.0,1.0,4.833E-002,20.693,0.300,0.700,0.100,OFFICE_OPEN_ACTIVITY,No,3.8200E-008,0.0,1.0,0.0,1.0,0.0,0.1,0.0,0.0,0.0,0.0,
 People Internal Gains Nominal, STORAGE_97_PEOPLE,STORAGE_OCCUPANCY,STORAGE_97,13.60,1.0,1.0,7.354E-002,13.599,0.300,0.700,0.100,STORAGE_ACTIVITY,No,3.8200E-008,0.2,0.2,0.2,0.2,0.2,0.2,0.2,0.2,0.2,0.2,
 People Internal Gains Nominal, LOBBY_98_PEOPLE,LOBBY_OCCUPANCY,LOBBY_98,37.71,1.0,1.0,2.652E-002,37.712,0.300,0.700,0.100,LOBBY_ACTIVITY,No,3.8200E-008,0.2,0.2,0.2,0.2,0.2,0.2,0.2,0.2,0.2,0.2,
 People Internal Gains Nominal, BREAK_ROOM_98_PEOPLE,BREAK_ROOM_OCCUPANCY,BREAK_ROOM_98,25.72,2.0,2.0,7.775E-002,12.862,0.300,0.700,0.100,BREAK_ROOM_ACTIVITY,No,3.8200E-008,0.4,0.4,0.4,0.4,0.4,0.4,0.4,0.4,0.4,0.4,
 People Internal Gains Nominal, STORAGE_99_PEOPLE,STORAGE_OCCUPANCY,STORAGE_99,10.09,1.0,1.0,9.907E-002,10.093,0.300,0.700,0.100,STORAGE_ACTIVITY,No,3.8200E-008,0.2,0.2,0.2,0.2,0.2,0.2,0.2,0.2,0.2,0.2,
! <Lights Internal Gains Nominal>,Name,Schedule Name,Zone Name,Zone Floor Area {m2},# Zone Occupants,Lighting Level {W},Lights/Floor Area {W/m2},Lights per person {W/person},Fraction Return Air,Fraction Radiant,Fraction Short Wave,Fraction Convected,Fraction Replaceable,End-Use, Minimum Lighting Level for All Day Types {W},Maximum Lighting Level for All Day Types {W},Minimum Lighting Level for Weekdays {W}, Maximum Lighting Level for Weekdays {W},Minimum Lighting Level for Weekends/Holidays {W}, Maximum Lighting Level for Weekends /Holidays {W},Minimum Lighting Level for Summer Design Days {W}, Maximum Lighting Level for Summer Design Days {W},Minimum Lighting Level for Winter Design Days {W}, Maximum Lighting Level for Winter Design Days {W}
 Lights Internal Gains Nominal, CONFERENCE_0_LIGHTS,CONFERENCE_LIGHTING,CONFERENCE_0,30.13,6.0,325.438,10.800,54.240,0.000,0.300,0.200,0.500,1.000,General,0.000,325.438,32.544,325.4,0.000,65.088,0.000,0.000,0.000,0.000
 Lights Internal Gains Nominal, OFFICE_PRIVATE_0_LIGHTS,OFFICE_OPEN_LIGHTING,OFFICE_PRIVATE_0,16.20,1.0,174.924,10.800,174.924,0.000,0.300,0.200,0.500,1.000,General,0.000,174.924,17.492,174.9,0.000,34.985,0.000,0.000,0.000,0.000
 Lights Internal Gains Nominal, BREAK_ROOM_1_LIGHTS,BREAK_ROOM_LIGHTING,BREAK_ROOM_1,17.80,1.0,144.148,8.100,144.148,0.000,0.300,0.200,0.500,1.000,General,0.000,144.148,14.415,144.1,0.000,28.830,0.000,0.000,0.000,0.000
 Lights Internal Gains Nominal, BREAK_ROOM_3_LIGHTS,BREAK_ROOM_LIGHTING,BREAK_ROOM_3,30.77,3.0,249.221,8.100,83.074,0.000,0.300,0.200,0.500,1.000,General,0.000,249.221,24.922,249.2,0.000,49.844,0.000,0.000,0.000,0.000
 Lights Internal Gains Nominal, LOBBY_5_LIGHTS,LOBBY_LIGHTING,LOBBY_5,34.39,1.0,443.593,12.900,443.593,0.000,0.300,0.200,0.500,1.000,General,0.000,443.593,44.359,443.6,0.000,88.719,0.000,0.000,0.000,0.000
 Lights Internal Gains Nominal, OFFICE_PRIVATE_5_LIGHTS,OFFICE_OPEN_LIGHTING,OFFICE_PRIVATE_5,18.78,1.0,202.867,10.800,202.867,0.000,0.300,0.200,0.500,1.000,General,0.000,202.867,20.287,202.9,0.000,40.573,0.000,0.000,0.000,0.000
 Lights Internal Gains Nominal, LOBBY_6_LIGHTS,LOBBY_LIGHTING,LOBBY_6,39.11,1.0,504.557,12.900,504.557,0.000,0.300,0.200,0.500,1.000,General,0.000,504.557,50.456,504.6,0.000,100.911,0.000,0.000,0.000,0.000
 Lights Internal Gains Nominal, BREAK_ROOM_6_LIGHTS,BREAK_ROOM_LIGHTING,BREAK_ROOM_6,29.40,2.0,238.139,8.100,119.070,0.000,0.300,0.200,0.500,1.000,General,0.000,238.139,23.814,238.1,0.000,47.628,0.000,0.000,0.000,0.000
 Lights Internal Gains Nominal, BREAK_ROOM_7_LIGHTS,BREAK_ROOM_LIGHTING,BREAK_ROOM_7,27.80,2.0,225.141,8.100,112.571,0.000,0.300,0.200,0.500,1.000,General,0.000,225.141,22.514,225.1,0.000,45.028,0.000,0.000,0.000,0.000
 Lights Internal Gains Nominal, MECHANICAL_9_LIGHTS,MECHANICAL_LIGHTING,MECHANICAL_9,25.41,1.0,137.189,5.400,137.189,0.000,0.300,0.200,0.500,1.000,General,0.000,137.189,13.719,137.2,0.000,27.438,0.000,0.000,0.000,0.000
 Lights Internal Gains Nominal, LOBBY_11_LIGHTS,LOBBY_LIGHTING,LOBBY_11,40.14,2.0,517.804,12.900,258.902,0.000,0.300,0.200,0.500,1.000,General,0.000,517.804,51.780,517.8,0.000,103.561,0.000,0.000,0.000,0.000
 Lights Internal Gains Nominal, MECHANICAL_11_LIGHTS,MECHANICAL_LIGHTING,MECHANICAL_11,25.73,1.0,138.937,5.400,138.937,0.000,0.300,0.200,0.500,1.000,General,0.000,138.937,13.894,138.9,0.000,27.787,0.000,0.000,0.000,0.000
 Lights Internal Gains Nominal, CONFERENCE_12_LIGHTS,CONFERENCE_LIGHTING,CONFERENCE_12,26.45,5.0,285.657,10.800,57.131,0.000,0.300,0.200,0.500,1.000,General,0.000,285.657,28.566,285.7,0.000,57.131,0.000,0.000,0.000,0.000
 Lights Internal Gains Nominal, BREAK_ROOM_12_LIGHTS,BREAK_ROOM_LIGHTING,BREAK_ROOM_12,31.08,3.0,251.711,8.100,83.904,0.000,0.300,0.200,0.500,1.000,General,0.000,251.711,25.171,251.7,0.000,50.342,0.000,0.000,0.000,0.000
 Lights Internal Gains Nominal, MECHANICAL_12_LIGHTS,MECHANICAL_LIGHTING,MECHANICAL_12,18.51,1.0,99.967,5.400,99.967,0.000,0.300,0.200,0.500,1.000,General,0.000,99.967,9.997,100.0,0.000,19.993,0.000,0.000,0.000,0.000
 Lights Internal Gains Nominal, BREAK_ROOM_13_LIGHTS,BREAK_ROOM_LIGHTING,BREAK_ROOM_13,33.02,3.0,267.480,8.100,89.160,0.000,0.300,0.200,0.500,1.000,General,0.000,267.480,26.748,267.5,0.000,53.496,0.000,0.000,0.000,0.000
 Lights Internal Gains Nominal, OFFICE_PRIVATE_14_LIGHTS,OFFICE_OPEN_LIGHTING,OFFICE_PRIVATE_14,18.17,1.0,196.189,10.800,196.189,0.000,0.300,0.200,0.500,1.000,General,0.000,196.189,19.619,196.2,0.000,39.238,0.000,0.000,0.000,0.000
 Lights Internal Gains Nominal, BREAK_ROOM_15_LIGHTS,BREAK_ROOM_LIGHTING,BREAK_ROOM_15,33.27,3.0,269.498,8.100,89.833,0.000,0.300,0.200,0.500,1.000,General,0.000,269.498,26.950,269.5,0.000,53.900,0.000,0.000,0.000,0.000
 Lights Internal Gains Nominal, OFFICE_PRIVATE_15_LIGHTS,OFFICE_OPEN_LIGHTING,OFFICE_PRIVATE_15,19.31,1.0,208.558,10.800,208.558,0.000,0.300,0.200,0.500,1.000,General,0.000,208.558,20.856,208.6,0.000,41.712,0.000,0.000,0.000,0.000
 Lights Internal Gains Nominal, MECHANICAL_16_LIGHTS,MECHANICAL_LIGHTING,MECHANICAL_16,20.77,1.0,112.169,5.400,112.169,0.000,0.300,0.200,0.500,1.000,General,0.000,112.169,11.217,112.2,0.000,22.434,0.000,0.000,0.000,0.000
 Lights Internal Gains Nominal, BREAK_ROOM_18_LIGHTS,BREAK_ROOM_LIGHTING,BREAK_ROOM_18,26.96,2.0,218.389,8.100,109.194,0.000,0.300,0.200,0.500,1.000,General,0.000,218.389,21.839,218.4,0.000,43.678,0.000,0.000,0.000,0.000
 Lights Internal Gains Nominal, MECHANICAL_18_LIGHTS,MECHANICAL_LIGHTING,MECHANICAL_18,37.44,1.0,202.182,5.400,202.182,0.000,0.300,0.200,0.500,1.000,General,0.000,202.182,20.218,202.2,0.000,40.436,0.000,0.000,0.000,0.000
 Lights Internal Gains Nominal, CONFERENCE_19_LIGHTS,CONFERENCE_LIGHTING,CONFERENCE_19,38.91,7.0,420.227,10.800,60.032,0.000,0.300,0.200,0.500,1.000,General,0.000,420.227,42.023,420.2,0.000,84.045,0.000,0.000,0.000,0.000
 Lights Internal Gains Nominal, BREAK_ROOM_19_LIGHTS,BREAK_ROOM_LIGHTING,BREAK_ROOM_19,19.55,1.0,158.386,8.100,158.386,0.000,0.300,0.200,0.500,1.000,General,0.000,158.386,15.839,158.4,0.000,31.677,0.000,0.000,0.000,0.000
 Lights Internal Gains Nominal, MECHANICAL_19_LIGHTS,MECHANICAL_LIGHTING,MECHANICAL_19,22.79,1.0,123.050,5.400,123.050,0.000,0.300,0.200,0.500,1.000,General,0.000,123.050,12.305,123.0,0.000,24.610,0.000,0.000,0.000,0.000
 Lights Internal Gains Nominal, CONFERENCE_20_LIGHTS,CONFERENCE_LIGHTING,CONFERENCE_20,27.37,5.0,295.631,10.800,59.126,0.000,0.300,0.200,0.500,1.000,General,0.000,295.631,29.563,295.6,0.000,59.126,0.000,0.000,0.000,0.000
 Lights Internal Gains Nominal, MECHANICAL_20_LIGHTS,MECHANICAL_LIGHTING,MECHANICAL_20,28.82,1.0,155.610,5.400,155.610,0.000,0.300,0.200,0.500,1.000,General,0.000,155.610,15.561,155.6,0.000,31.122,0.000,0.000,0.000,0.000
 Lights Internal Gains Nominal, OFFICE_PRIVATE_20_LIGHTS,OFFICE_OPEN_LIGHTING,OFFICE_PRIVATE_20,15.44,1.0,166.790,10.800,166.790,0.000,0.300,0.200,0.500,1.000,General,0.000,166.790,16.679,166.8,0.000,33.358,0.000,0.000,0.000,0.000
 Lights Internal Gains Nominal, MECHANICAL_21_LIGHTS,MECHANICAL_LIGHTING,MECHANICAL_21,28.89,1.0,155.998,5.400,155.998,0.000,0.300,0.200,0.500,1.000,General,0.000,155.998,15.600,156.0,0.000,31.200,0.000,0.000,0.000,0.000
 Lights Internal Gains Nominal, STORAGE_21_LIGHTS,STORAGE_LIGHTING,STORAGE_21,21.82,1.0,117.806,5.400,117.806,0.000,0.300,0.200,0.500,1.000,General,0.000,117.806,11.781,117.8,0.000,23.561,0.000,0.000,0.000,0.000
 Lights Internal Gains Nominal, CONFERENCE_22_LIGHTS,CONFERENCE_LIGHTING,CONFERENCE_22,32.74,6.0,353.579,10.800,58.930,0.000,0.300,0.200,0.500,1.000,General,0.000,353.579,35.358,353.6,0.000,70.716,0.000,0.000,0.000,0.000
 Lights Internal Gains Nominal, CONFERENCE_23_LIGHTS,CONFERENCE_LIGHTING,CONFERENCE_23,32.43,6.0,350.234,10.800,58.372,0.000,0.300,0.200,0.500,1.000,General,0.000,350.234,35.023,350.2,0.000,70.047,0.000,0.000,0.000,0.000
 Lights Internal Gains Nominal, STORAGE_24_LIGHTS,STORAGE_LIGHTING,STORAGE_24,26.82,1.0,144.834,5.400,144.834,0.000,0.300,0.200,0.500,1.000,General,0.000,144.834,14.483,144.8,0.000,28.967,0.000,0.000,0.000,0.000
 Lights Internal Gains Nominal, BREAK_ROOM_27_LIGHTS,BREAK_ROOM_LIGHTING,BREAK_ROOM_27,29.82,2.0,241.531,8.100,120.766,0.000,0.300,0.200,0.500,1.000,General,0.000,241.531,24.153,241.5,0.000,48.306,0.000,0.000,0.000,0.000
 Lights Internal Gains Nominal, CONFERENCE_28_LIGHTS,CONFERENCE_LIGHTING,CONFERENCE_28,33.80,6.0,365.061,10.800,60.843,0.000,0.300,0.200,0.500,1.000,General,0.000,365.061,36.506,365.1,0.000,73.012,0.000,0.000,0.000,0.000
 Lights Internal Gains Nominal, OFFICE_PRIVATE_28_LIGHTS,OFFICE_OPEN_LIGHTING,OFFICE_PRIVATE_28,22.03,1.0,237.927,10.800,237.927,0.000,0.300,0.200,0.500,1.000,General,0.000,237.927,23.793,237.9,0.000,47.585,0.000,0.000,0.000,0.000
[...]
 DX Cooling Coil AHRI 2023 Standard Rating Information, Coil:Cooling:DX:SingleSpeed, OFFICE_PRIVATE_87_Z108_COOLINGCOILDX, 1560.2, 39.98, 136.43, 54.18, 52.72, 37.2
 Component Sizing Information, Coil:Heating:Electric, OFFICE_PRIVATE_87_Z108_HEATINGCOIL, User-Specified Nominal Capacity [W], 1298.54547
 Component Sizing Information, Fan:VariableVolume, OFFICE_PRIVATE_87_Z108_SUPPLYFAN, User-Specified Maximum Flow Rate [m3/s], 8.11591E-002
 Component Sizing Information, Fan:VariableVolume, OFFICE_PRIVATE_87_Z108_SUPPLYFAN, Design Electric Power Consumption [W], 69.56494
 Component Sizing Information, Coil:Cooling:DX:SingleSpeed, LOBBY_88_Z109_COOLINGCOILDX, User-Specified Rated Air Flow Rate [m3/s], 0.14202
 Component Sizing Information, Coil:Cooling:DX:SingleSpeed, LOBBY_88_Z109_COOLINGCOILDX, User-Specified Gross Rated Total Cooling Capacity [W], 2840.47421
 Component Sizing Information, Coil:Cooling:DX:SingleSpeed, LOBBY_88_Z109_COOLINGCOILDX, User-Specified Gross Rated Sensible Heat Ratio, 0.75000
 DX Cooling Coil Standard Rating Information, Coil:Cooling:DX:SingleSpeed, LOBBY_88_Z109_COOLINGCOILDX, 2730.2, 39.98, 136.43, 54.18, 51.26, 37.2
 DX Cooling Coil AHRI 2023 Standard Rating Information, Coil:Cooling:DX:SingleSpeed, LOBBY_88_Z109_COOLINGCOILDX, 2730.2, 39.98, 136.43, 54.18, 52.72, 37.2
 Component Sizing Information, Coil:Heating:Electric, LOBBY_88_Z109_HEATINGCOIL, User-Specified Nominal Capacity [W], 2272.37937
 Component Sizing Information, Fan:VariableVolume, LOBBY_88_Z109_SUPPLYFAN, User-Specified Maximum Flow Rate [m3/s], 0.14202
 Component Sizing Information, Fan:VariableVolume, LOBBY_88_Z109_SUPPLYFAN, Design Electric Power Consumption [W], 121.73461
 Component Sizing Information, Coil:Cooling:DX:SingleSpeed, BREAK_ROOM_88_Z110_COOLINGCOILDX, User-Specified Rated Air Flow Rate [m3/s], 0.12588
 Component Sizing Information, Coil:Cooling:DX:SingleSpeed, BREAK_ROOM_88_Z110_COOLINGCOILDX, User-Specified Gross Rated Total Cooling Capacity [W], 2517.50725
 Component Sizing Information, Coil:Cooling:DX:SingleSpeed, BREAK_ROOM_88_Z110_COOLINGCOILDX, User-Specified Gross Rated Sensible Heat Ratio, 0.75000
 DX Cooling Coil Standard Rating Information, Coil:Cooling:DX:SingleSpeed, BREAK_ROOM_88_Z110_COOLINGCOILDX, 2419.8, 39.98, 136.43, 54.18, 51.26, 37.2
 DX Cooling Coil AHRI 2023 Standard Rating Information, Coil:Cooling:DX:SingleSpeed, BREAK_ROOM_88_Z110_COOLINGCOILDX, 2419.8, 39.98, 136.43, 54.18, 52.72, 37.2
 Component Sizing Information, Coil:Heating:Electric, BREAK_ROOM_88_Z110_HEATINGCOIL, User-Specified Nominal Capacity [W], 2014.00580
 Component Sizing Information, Fan:VariableVolume, BREAK_ROOM_88_Z110_SUPPLYFAN, User-Specified Maximum Flow Rate [m3/s], 0.12588
 Component Sizing Information, Fan:VariableVolume, BREAK_ROOM_88_Z110_SUPPLYFAN, Design Electric Power Consumption [W], 107.89317
 Component Sizing Information, Coil:Cooling:DX:SingleSpeed, STORAGE_88_Z111_COOLINGCOILDX, User-Specified Rated Air Flow Rate [m3/s], 8.68010E-002
 Component Sizing Information, Coil:Cooling:DX:SingleSpeed, STORAGE_88_Z111_COOLINGCOILDX, User-Specified Gross Rated Total Cooling Capacity [W], 1736.02059
 Component Sizing Information, Coil:Cooling:DX:SingleSpeed, STORAGE_88_Z111_COOLINGCOILDX, User-Specified Gross Rated Sensible Heat Ratio, 0.75000
 DX Cooling Coil Standard Rating Information, Coil:Cooling:DX:SingleSpeed, STORAGE_88_Z111_COOLINGCOILDX, 1668.6, 39.98, 136.43, 54.18, 51.26, 37.2
 DX Cooling Coil AHRI 2023 Standard Rating Information, Coil:Cooling:DX:SingleSpeed, STORAGE_88_Z111_COOLINGCOILDX, 1668.6, 39.98, 136.43, 54.18, 52.72, 37.2
 Component Sizing Information, Coil:Heating:Electric, STORAGE_88_Z111_HEATINGCOIL, User-Specified Nominal Capacity [W], 1388.81647
 Component Sizing Information, Fan:VariableVolume, STORAGE_88_Z111_SUPPLYFAN, User-Specified Maximum Flow Rate [m3/s], 8.68010E-002
 Component Sizing Information, Fan:VariableVolume, STORAGE_88_Z111_SUPPLYFAN, Design Electric Power Consumption [W], 74.40088
 Component Sizing Information, Coil:Cooling:DX:SingleSpeed, LOBBY_91_Z112_COOLINGCOILDX, User-Specified Rated Air Flow Rate [m3/s], 0.13193
 Component Sizing Information, Coil:Cooling:DX:SingleSpeed, LOBBY_91_Z112_COOLINGCOILDX, User-Specified Gross Rated Total Cooling Capacity [W], 2638.54441
 Component Sizing Information, Coil:Cooling:DX:SingleSpeed, LOBBY_91_Z112_COOLINGCOILDX, User-Specified Gross Rated Sensible Heat Ratio, 0.75000
 DX Cooling Coil Standard Rating Information, Coil:Cooling:DX:SingleSpeed, LOBBY_91_Z112_COOLINGCOILDX, 2536.1, 39.98, 136.43, 54.18, 51.26, 37.2
 DX Cooling Coil AHRI 2023 Standard Rating Information, Coil:Cooling:DX:SingleSpeed, LOBBY_91_Z112_COOLINGCOILDX, 2536.1, 39.98, 136.43, 54.18, 52.72, 37.2
 Component Sizing Information, Coil:Heating:Electric, LOBBY_91_Z112_HEATINGCOIL, User-Specified Nominal Capacity [W], 2110.83553
 Component Sizing Information, Fan:VariableVolume, LOBBY_91_Z112_SUPPLYFAN, User-Specified Maximum Flow Rate [m3/s], 0.13193
 Component Sizing Information, Fan:VariableVolume, LOBBY_91_Z112_SUPPLYFAN, Design Electric Power Consumption [W], 113.08047
 Component Sizing Information, Coil:Cooling:DX:SingleSpeed, BREAK_ROOM_91_Z113_COOLINGCOILDX, User-Specified Rated Air Flow Rate [m3/s], 0.11278
 Component Sizing Information, Coil:Cooling:DX:SingleSpeed, BREAK_ROOM_91_Z113_COOLINGCOILDX, User-Specified Gross Rated Total Cooling Capacity [W], 2255.50052
 Component Sizing Information, Coil:Cooling:DX:SingleSpeed, BREAK_ROOM_91_Z113_COOLINGCOILDX, User-Specified Gross Rated Sensible Heat Ratio, 0.75000
 DX Cooling Coil Standard Rating Information, Coil:Cooling:DX:SingleSpeed, BREAK_ROOM_91_Z113_COOLINGCOILDX, 2167.9, 39.98, 136.43, 54.18, 51.26, 37.2
 DX Cooling Coil AHRI 2023 Standard Rating Information, Coil:Cooling:DX:SingleSpeed, BREAK_ROOM_91_Z113_COOLINGCOILDX, 2167.9, 39.98, 136.43, 54.18, 52.72, 37.2
 Component Sizing Information, Coil:Heating:Electric, BREAK_ROOM_91_Z113_HEATINGCOIL, User-Specified Nominal Capacity [W], 1804.40042
 Component Sizing Information, Fan:VariableVolume, BREAK_ROOM_91_Z113_SUPPLYFAN, User-Specified Maximum Flow Rate [m3/s], 0.11278
 Component Sizing Information, Fan:VariableVolume, BREAK_ROOM_91_Z113_SUPPLYFAN, Design Electric Power Consumption [W], 96.66431
 Component Sizing Information, Coil:Cooling:DX:SingleSpeed, STORAGE_91_Z114_COOLINGCOILDX, User-Specified Rated Air Flow Rate [m3/s], 8.56038E-002
 Component Sizing Information, Coil:Cooling:DX:SingleSpeed, STORAGE_91_Z114_COOLINGCOILDX, User-Specified Gross Rated Total Cooling Capacity [W], 1712.07576
 Component Sizing Information, Coil:Cooling:DX:SingleSpeed, STORAGE_91_Z114_COOLINGCOILDX, User-Specified Gross Rated Sensible Heat Ratio, 0.75000
 DX Cooling Coil Standard Rating Information, Coil:Cooling:DX:SingleSpeed, STORAGE_91_Z114_COOLINGCOILDX, 1645.6, 39.98, 136.43, 54.18, 51.26, 37.2
 DX Cooling Coil AHRI 2023 Standard Rating Information, Coil:Cooling:DX:SingleSpeed, STORAGE_91_Z114_COOLINGCOILDX, 1645.6, 39.98, 136.43, 54.18, 52.72, 37.2
 Component Sizing Information, Coil:Heating:Electric, STORAGE_91_Z114_HEATINGCOIL, User-Specified Nominal Capacity [W], 1369.66061
 Component Sizing Information, Fan:VariableVolume, STORAGE_91_Z114_SUPPLYFAN, User-Specified Maximum Flow Rate [m3/s], 8.56038E-002
 Component Sizing Information, Fan:VariableVolume, STORAGE_91_Z114_SUPPLYFAN, Design Electric Power Consumption [W], 73.37468
 Component Sizing Information, Coil:Cooling:DX:SingleSpeed, CONFERENCE_93_Z115_COOLINGCOILDX, User-Specified Rated Air Flow Rate [m3/s], 0.13186
 Component Sizing Information, Coil:Cooling:DX:SingleSpeed, CONFERENCE_93_Z115_COOLINGCOILDX, User-Specified Gross Rated Total Cooling Capacity [W], 2637.21874
 Component Sizing Information, Coil:Cooling:DX:SingleSpeed, CONFERENCE_93_Z115_COOLINGCOILDX, User-Specified Gross Rated Sensible Heat Ratio, 0.75000
 DX Cooling Coil Standard Rating Information, Coil:Cooling:DX:SingleSpeed, CONFERENCE_93_Z115_COOLINGCOILDX, 2534.8, 39.98, 136.43, 54.18, 51.26, 37.2
 DX Cooling Coil AHRI 2023 Standard Rating Information, Coil:Cooling:DX:SingleSpeed, CONFERENCE_93_Z115_COOLINGCOILDX, 2534.8, 39.98, 136.43, 54.18, 52.72, 37.2
 Component Sizing Information, Coil:Heating:Electric, CONFERENCE_93_Z115_HEATINGCOIL, User-Specified Nominal Capacity [W], 2109.77500
 Component Sizing Information, Fan:VariableVolume, CONFERENCE_93_Z115_SUPPLYFAN, User-Specified Maximum Flow Rate [m3/s], 0.13186
 Component Sizing Information, Fan:VariableVolume, CONFERENCE_93_Z115_SUPPLYFAN, Design Electric Power Consumption [W], 113.02366
 Component Sizing Information, Coil:Cooling:DX:SingleSpeed, OFFICE_PRIVATE_93_Z116_COOLINGCOILDX, User-Specified Rated Air Flow Rate [m3/s], 8.15846E-002
 Component Sizing Information, Coil:Cooling:DX:SingleSpeed, OFFICE_PRIVATE_93_Z116_COOLINGCOILDX, User-Specified Gross Rated Total Cooling Capacity [W], 1631.69130
 Component Sizing Information, Coil:Cooling:DX:SingleSpeed, OFFICE_PRIVATE_93_Z116_COOLINGCOILDX, User-Specified Gross Rated Sensible Heat Ratio, 0.75000
 DX Cooling Coil Standard Rating Information, Coil:Cooling:DX:SingleSpeed, OFFICE_PRIVATE_93_Z116_COOLINGCOILDX, 1568.3, 39.98, 136.43, 54.18, 51.26, 37.2
 DX Cooling Coil AHRI 2023 Standard Rating Information, Coil:Cooling:DX:SingleSpeed, OFFICE_PRIVATE_93_Z116_COOLINGCOILDX, 1568.3, 39.98, 136.43, 54.18, 52.72, 37.2
 Component Sizing Information, Coil:Heating:Electric, OFFICE_PRIVATE_93_Z116_HEATINGCOIL, User-Specified Nominal Capacity [W], 1305.35304
 Component Sizing Information, Fan:VariableVolume, OFFICE_PRIVATE_93_Z116_SUPPLYFAN, User-Specified Maximum Flow Rate [m3/s], 8.15846E-002
 Component Sizing Information, Fan:VariableVolume, OFFICE_PRIVATE_93_Z116_SUPPLYFAN, Design Electric Power Consumption [W], 69.92963
 Component Sizing Information, Coil:Cooling:DX:SingleSpeed, STORAGE_94_Z117_COOLINGCOILDX, User-Specified Rated Air Flow Rate [m3/s], 7.69153E-002
 Component Sizing Information, Coil:Cooling:DX:SingleSpeed, STORAGE_94_Z117_COOLINGCOILDX, User-Specified Gross Rated Total Cooling Capacity [W], 1538.30655
 Component Sizing Information, Coil:Cooling:DX:SingleSpeed, STORAGE_94_Z117_COOLINGCOILDX, User-Specified Gross Rated Sensible Heat Ratio, 0.75000
 DX Cooling Coil Standard Rating Information, Coil:Cooling:DX:SingleSpeed, STORAGE_94_Z117_COOLINGCOILDX, 1478.6, 39.98, 136.43, 54.18, 51.26, 37.2
 DX Cooling Coil AHRI 2023 Standard Rating Information, Coil:Cooling:DX:SingleSpeed, STORAGE_94_Z117_COOLINGCOILDX, 1478.6, 39.98, 136.43, 54.18, 52.72, 37.2
 Component Sizing Information, Coil:Heating:Electric, STORAGE_94_Z117_HEATINGCOIL, User-Specified Nominal Capacity [W], 1230.64524
 Component Sizing Information, Fan:VariableVolume, STORAGE_94_Z117_SUPPLYFAN, User-Specified Maximum Flow Rate [m3/s], 7.69153E-002
 Component Sizing Information, Fan:VariableVolume, STORAGE_94_Z117_SUPPLYFAN, Design Electric Power Consumption [W], 65.92742
 Component Sizing Information, Coil:Cooling:DX:SingleSpeed, MECHANICAL_95_Z118_COOLINGCOILDX, User-Specified Rated Air Flow Rate [m3/s], 0.15509
 Component Sizing Information, Coil:Cooling:DX:SingleSpeed, MECHANICAL_95_Z118_COOLINGCOILDX, User-Specified Gross Rated Total Cooling Capacity [W], 3101.70867
 Component Sizing Information, Coil:Cooling:DX:SingleSpeed, MECHANICAL_95_Z118_COOLINGCOILDX, User-Specified Gross Rated Sensible Heat Ratio, 0.75000
 DX Cooling Coil Standard Rating Information, Coil:Cooling:DX:SingleSpeed, MECHANICAL_95_Z118_COOLINGCOILDX, 2981.3, 39.98, 136.43, 54.18, 51.26, 37.2
 DX Cooling Coil AHRI 2023 Standard Rating Information, Coil:Cooling:DX:SingleSpeed, MECHANICAL_95_Z118_COOLINGCOILDX, 2981.3, 39.98, 136.43, 54.18, 52.72, 37.2
 Component Sizing Information, Coil:Heating:Electric, MECHANICAL_95_Z118_HEATINGCOIL, User-Specified Nominal Capacity [W], 2481.36694
 Component Sizing Information, Fan:VariableVolume, MECHANICAL_95_Z118_SUPPLYFAN, User-Specified Maximum Flow Rate [m3/s], 0.15509
 Component Sizing Information, Fan:VariableVolume, MECHANICAL_95_Z118_SUPPLYFAN, Design Electric Power Consumption [W], 132.93037
 Component Sizing Information, Coil:Cooling:DX:SingleSpeed, LOBBY_96_Z119_COOLINGCOILDX, User-Specified Rated Air Flow Rate [m3/s], 0.18436
 Component Sizing Information, Coil:Cooling:DX:SingleSpeed, LOBBY_96_Z119_COOLINGCOILDX, User-Specified Gross Rated Total Cooling Capacity [W], 3687.29496
 Component Sizing Information, Coil:Cooling:DX:SingleSpeed, LOBBY_96_Z119_COOLINGCOILDX, User-Specified Gross Rated Sensible Heat Ratio, 0.75000
 DX Cooling Coil Standard Rating Information, Coil:Cooling:DX:SingleSpeed, LOBBY_96_Z119_COOLINGCOILDX, 3544.1, 39.98, 136.43, 54.18, 51.26, 37.2
 DX Cooling Coil AHRI 2023 Standard Rating Information, Coil:Cooling:DX:SingleSpeed, LOBBY_96_Z119_COOLINGCOILDX, 3544.1, 39.98, 136.43, 54.18, 52.72, 37.2
 Component Sizing Information, Coil:Heating:Electric, LOBBY_96_Z119_HEATINGCOIL, User-Specified Nominal Capacity [W], 2949.83597
 Component Sizing Information, Fan:VariableVolume, LOBBY_96_Z119_SUPPLYFAN, User-Specified Maximum Flow Rate [m3/s], 0.18436
 Component Sizing Information, Fan:VariableVolume, LOBBY_96_Z119_SUPPLYFAN, Design Electric Power Consumption [W], 158.02693
 Component Sizing Information, Coil:Cooling:DX:SingleSpeed, LOBBY_97_Z120_COOLINGCOILDX, User-Specified Rated Air Flow Rate [m3/s], 0.16270
 Component Sizing Information, Coil:Cooling:DX:SingleSpeed, LOBBY_97_Z120_COOLINGCOILDX, User-Specified Gross Rated Total Cooling Capacity [W], 3254.07506
 Component Sizing Information, Coil:Cooling:DX:SingleSpeed, LOBBY_97_Z120_COOLINGCOILDX, User-Specified Gross Rated Sensible Heat Ratio, 0.75000
 DX Cooling Coil Standard Rating Information, Coil:Cooling:DX:SingleSpeed, LOBBY_97_Z120_COOLINGCOILDX, 3127.7, 39.98, 136.43, 54.18, 51.26, 37.2
 DX Cooling Coil AHRI 2023 Standard Rating Information, Coil:Cooling:DX:SingleSpeed, LOBBY_97_Z120_COOLINGCOILDX, 3127.7, 39.98, 136.43, 54.18, 52.72, 37.2
 Component Sizing Information, Coil:Heating:Electric, LOBBY_97_Z120_HEATINGCOIL, User-Specified Nominal Capacity [W], 2603.26004
 Component Sizing Information, Fan:VariableVolume, LOBBY_97_Z120_SUPPLYFAN, User-Specified Maximum Flow Rate [m3/s], 0.16270
 Component Sizing Information, Fan:VariableVolume, LOBBY_97_Z120_SUPPLYFAN, Design Electric Power Consumption [W], 139.46036
 Component Sizing Information, Coil:Cooling:DX:SingleSpeed, OFFICE_PRIVATE_97_Z121_COOLINGCOILDX, User-Specified Rated Air Flow Rate [m3/s], 0.10346
 Component Sizing Information, Coil:Cooling:DX:SingleSpeed, OFFICE_PRIVATE_97_Z121_COOLINGCOILDX, User-Specified Gross Rated Total Cooling Capacity [W], 2069.27268
 Component Sizing Information, Coil:Cooling:DX:SingleSpeed, OFFICE_PRIVATE_97_Z121_COOLINGCOILDX, User-Specified Gross Rated Sensible Heat Ratio, 0.75000
 DX Cooling Coil Standard Rating Information, Coil:Cooling:DX:SingleSpeed, OFFICE_PRIVATE_97_Z121_COOLINGCOILDX, 1988.9, 39.98, 136.43, 54.18, 51.26, 37.2
 DX Cooling Coil AHRI 2023 Standard Rating Information, Coil:Cooling:DX:SingleSpeed, OFFICE_PRIVATE_97_Z121_COOLINGCOILDX, 1988.9, 39.98, 136.43, 54.18, 52.72, 37.2
 Component Sizing Information, Coil:Heating:Electric, OFFICE_PRIVATE_97_Z121_HEATINGCOIL, User-Specified Nominal Capacity [W], 1655.41814
 Component Sizing Information, Fan:VariableVolume, OFFICE_PRIVATE_97_Z121_SUPPLYFAN, User-Specified Maximum Flow Rate [m3/s], 0.10346
 Component Sizing Information, Fan:VariableVolume, OFFICE_PRIVATE_97_Z121_SUPPLYFAN, Design Electric Power Consumption [W], 88.68311
 Component Sizing Information, Coil:Cooling:DX:SingleSpeed, STORAGE_97_Z122_COOLINGCOILDX, User-Specified Rated Air Flow Rate [m3/s], 6.79951E-002
 Component Sizing Information, Coil:Cooling:DX:SingleSpeed, STORAGE_97_Z122_COOLINGCOILDX, User-Specified Gross Rated Total Cooling Capacity [W], 1359.90209
 Component Sizing Information, Coil:Cooling:DX:SingleSpeed, STORAGE_97_Z122_COOLINGCOILDX, User-Specified Gross Rated Sensible Heat Ratio, 0.75000
 DX Cooling Coil Standard Rating Information, Coil:Cooling:DX:SingleSpeed, STORAGE_97_Z122_COOLINGCOILDX, 1307.1, 39.98, 136.43, 54.18, 51.26, 37.2
 DX Cooling Coil AHRI 2023 Standard Rating Information, Coil:Cooling:DX:SingleSpeed, STORAGE_97_Z122_COOLINGCOILDX, 1307.1, 39.98, 136.43, 54.18, 52.72, 37.2
 Component Sizing Information, Coil:Heating:Electric, STORAGE_97_Z122_HEATINGCOIL, User-Specified Nominal Capacity [W], 1087.92167
 Component Sizing Information, Fan:VariableVolume, STORAGE_97_Z122_SUPPLYFAN, User-Specified Maximum Flow Rate [m3/s], 6.79951E-002
 Component Sizing Information, Fan:VariableVolume, STORAGE_97_Z122_SUPPLYFAN, Design Electric Power Consumption [W], 58.28152
 Component Sizing Information, Coil:Cooling:DX:SingleSpeed, LOBBY_98_Z123_COOLINGCOILDX, User-Specified Rated Air Flow Rate [m3/s], 0.18856
 Component Sizing Information, Coil:Cooling:DX:SingleSpeed, LOBBY_98_Z123_COOLINGCOILDX, User-Specified Gross Rated Total Cooling Capacity [W], 3771.15316
 Component Sizing Information, Coil:Cooling:DX:SingleSpeed, LOBBY_98_Z123_COOLINGCOILDX, User-Specified Gross Rated Sensible Heat Ratio, 0.75000
 DX Cooling Coil Standard Rating Information, Coil:Cooling:DX:SingleSpeed, LOBBY_98_Z123_COOLINGCOILDX, 3624.7, 39.98, 136.43, 54.18, 51.26, 37.2
 DX Cooling Coil AHRI 2023 Standard Rating Information, Coil:Cooling:DX:SingleSpeed, LOBBY_98_Z123_COOLINGCOILDX, 3624.7, 39.98, 136.43, 54.18, 52.72, 37.2
 Component Sizing Information, Coil:Heating:Electric, LOBBY_98_Z123_HEATINGCOIL, User-Specified Nominal Capacity [W], 3016.92253
 Component Sizing Information, Fan:VariableVolume, LOBBY_98_Z123_SUPPLYFAN, User-Specified Maximum Flow Rate [m3/s], 0.18856
 Component Sizing Information, Fan:VariableVolume, LOBBY_98_Z123_SUPPLYFAN, Design Electric Power Consumption [W], 161.62085
 Component Sizing Information, Coil:Cooling:DX:SingleSpeed, BREAK_ROOM_98_Z124_COOLINGCOILDX, User-Specified Rated Air Flow Rate [m3/s], 0.12861
 Component Sizing Information, Coil:Cooling:DX:SingleSpeed, BREAK_ROOM_98_Z124_COOLINGCOILDX, User-Specified Gross Rated Total Cooling Capacity [W], 2572.28844
 Component Sizing Information, Coil:Cooling:DX:SingleSpeed, BREAK_ROOM_98_Z124_COOLINGCOILDX, User-Specified Gross Rated Sensible Heat Ratio, 0.75000
 DX Cooling Coil Standard Rating Information, Coil:Cooling:DX:SingleSpeed, BREAK_ROOM_98_Z124_COOLINGCOILDX, 2472.4, 39.98, 136.43, 54.18, 51.26, 37.2
 DX Cooling Coil AHRI 2023 Standard Rating Information, Coil:Cooling:DX:SingleSpeed, BREAK_ROOM_98_Z124_COOLINGCOILDX, 2472.4, 39.98, 136.43, 54.18, 52.72, 37.2
 Component Sizing Information, Coil:Heating:Electric, BREAK_ROOM_98_Z124_HEATINGCOIL, User-Specified Nominal Capacity [W], 2057.83076
 Component Sizing Information, Fan:VariableVolume, BREAK_ROOM_98_Z124_SUPPLYFAN, User-Specified Maximum Flow Rate [m3/s], 0.12861
 Component Sizing Information, Fan:VariableVolume, BREAK_ROOM_98_Z124_SUPPLYFAN, Design Electric Power Consumption [W], 110.24093
 Component Sizing Information, Coil:Cooling:DX:SingleSpeed, STORAGE_99_Z125_COOLINGCOILDX, User-Specified Rated Air Flow Rate [m3/s], 5.04677E-002
 Component Sizing Information, Coil:Cooling:DX:SingleSpeed, STORAGE_99_Z125_COOLINGCOILDX, User-Specified Gross Rated Total Cooling Capacity [W], 1009.35365
 Component Sizing Information, Coil:Cooling:DX:SingleSpeed, STORAGE_99_Z125_COOLINGCOILDX, User-Specified Gross Rated Sensible Heat Ratio, 0.75000
 DX Cooling Coil Standard Rating Information, Coil:Cooling:DX:SingleSpeed, STORAGE_99_Z125_COOLINGCOILDX, 970.2, 39.98, 136.43, 54.18, 51.26, 37.2
 DX Cooling Coil AHRI 2023 Standard Rating Information, Coil:Cooling:DX:SingleSpeed, STORAGE_99_Z125_COOLINGCOILDX, 970.2, 39.98, 136.43, 54.18, 52.72, 37.2
 Component Sizing Information, Coil:Heating:Electric, STORAGE_99_Z125_HEATINGCOIL, User-Specified Nominal Capacity [W], 807.48292
 Component Sizing Information, Fan:VariableVolume, STORAGE_99_Z125_SUPPLYFAN, User-Specified Maximum Flow Rate [m3/s], 5.04677E-002
 Component Siz