Program Version,EnergyPlus, Version 24.2.0-94a887817b, YMD=2025.11.14 12:29,
   ************* Beginning Zone Sizing Calculations
   **  Fatal  ** OpenWeatherFile: Unexpected End-of-File on EPW Weather file, while reading header information, looking for header=LOCATION
   ...Summary of Errors that led to program termination:
   ..... Reference severe error count=0
   ..... Last severe error=
   ************* Warning:  Node connection errors not checked - most system input has not been read (see previous warning).
   ************* Fatal error -- final processing.  Program exited before simulations began.  See previous error messages.
   ************* EnergyPlus Warmup Error Summary. During Warmup: 0 Warning; 0 Severe Errors.
   ************* EnergyPlus Sizing Error Summary. During Sizing: 0 Warning; 0 Severe Errors.
   ************* EnergyPlus Terminated--Fatal Error Detected. 0 Warning; 0 Severe Errors; Elapsed Time=00hr 00min  0.20sec
