Program Version,EnergyPlus, Version 24.2.0-94a887817b, YMD=2025.11.02 19:28
! <Version>, Version ID
 Version, 24.2.0
! <Timesteps per Hour>, #TimeSteps, Minutes per TimeStep {minutes}
 Timesteps per Hour,  4, 15
! <System Convergence Limits>, Minimum System TimeStep {minutes}, Max HVAC Iterations, Minimum Plant Iterations, Maximum Plant Iterations
 System Convergence Limits, 1, 20, 2, 8
! <Simulation Control>, Do Zone Sizing, Do System Sizing, Do Plant Sizing, Do Design Days, Do Weather Simulation, Do HVAC Sizing Simulation
 Simulation Control, No, No, No, No, Yes, No
! <Performance Precision Tradeoffs>, Use Coil Direct Simulation, Zone Radiant Exchange Algorithm, Override Mode, Number of Timestep In Hour, Force Euler Method, Minimum Number of Warmup Days, Force Suppress All Begin Environment Resets, Minimum System Timestep, MaxZoneTempDiff, MaxAllowedDelTemp
 Performance Precision Tradeoffs, No, ScriptF, Normal, 4, No, 1, No, 1.0, 0.300, 2.0000E-003
! <Output Reporting Tolerances>, Tolerance for Time Heating Setpoint Not Met, Tolerance for Zone Cooling Setpoint Not Met Time
 Output Reporting Tolerances, 0.200, 0.200, 
! <Site:GroundTemperature:BuildingSurface>,Jan{C},Feb{C},Mar{C},Apr{C},May{C},Jun{C},Jul{C},Aug{C},Sep{C},Oct{C},Nov{C},Dec{C}
 Site:GroundTemperature:BuildingSurface,  13.00,  12.00,  11.00,  10.00,  11.00,  13.00,  15.00,  16.00,  16.00,  15.00,  14.00,  13.00
! <Site:GroundTemperature:FCfactorMethod>,Jan{C},Feb{C},Mar{C},Apr{C},May{C},Jun{C},Jul{C},Aug{C},Sep{C},Oct{C},Nov{C},Dec{C}
 Site:GroundTemperature:FCfactorMethod,  -1.89,  -3.06,  -0.99,   2.23,  10.68,  17.20,  21.60,  22.94,  20.66,  15.60,   8.83,   2.56
! <Site:GroundTemperature:Shallow>,Jan{C},Feb{C},Mar{C},Apr{C},May{C},Jun{C},Jul{C},Aug{C},Sep{C},Oct{C},Nov{C},Dec{C}
 Site:GroundTemperature:Shallow,  11.00,  10.00,   9.00,   8.00,   9.00,  11.00,  13.00,  14.00,  14.00,  13.00,  12.00,  11.00
! <Site:GroundTemperature:Deep>,Jan{C},Feb{C},Mar{C},Apr{C},May{C},Jun{C},Jul{C},Aug{C},Sep{C},Oct{C},Nov{C},Dec{C}
 Site:GroundTemperature:Deep,   9.00,   8.00,   7.00,   6.00,   7.00,   9.00,  11.00,  12.00,  12.00,  11.00,  10.00,   9.00
! <Site:GroundReflectance>,Jan{dimensionless},Feb{dimensionless},Mar{dimensionless},Apr{dimensionless},May{dimensionless},Jun{dimensionless},Jul{dimensionless},Aug{dimensionless},Sep{dimensionless},Oct{dimensionless},Nov{dimensionless},Dec{dimensionless}
 Site:GroundReflectance,  0.20,  0.20,  0.20,  0.20,  0.20,  0.20,  0.20,  0.20,  0.20,  0.20,  0.20,  0.20
! <Site:GroundReflectance:SnowModifier>, Normal, Daylighting {dimensionless}
 Site:GroundReflectance:SnowModifier,   1.000,   1.000
! <Site:GroundReflectance:Snow>,Jan{dimensionless},Feb{dimensionless},Mar{dimensionless},Apr{dimensionless},May{dimensionless},Jun{dimensionless},Jul{dimensionless},Aug{dimensionless},Sep{dimensionless},Oct{dimensionless},Nov{dimensionless},Dec{dimensionless}
 Site:GroundReflectance:Snow,  0.20,  0.20,  0.20,  0.20,  0.20,  0.20,  0.20,  0.20,  0.20,  0.20,  0.20,  0.20
! <Site:GroundReflectance:Snow:Daylighting>,Jan{dimensionless},Feb{dimensionless},Mar{dimensionless},Apr{dimensionless},May{dimensionless},Jun{dimensionless},Jul{dimensionless},Aug{dimensionless},Sep{dimensionless},Oct{dimensionless},Nov{dimensionless},Dec{dimensionless}
 Site:GroundReflectance:Snow:Daylighting,  0.20,  0.20,  0.20,  0.20,  0.20,  0.20,  0.20,  0.20,  0.20,  0.20,  0.20,  0.20
! <Environment:Weather Station>,Wind Sensor Height Above Ground {m},Wind Speed Profile Exponent {},Wind Speed Profile Boundary Layer Thickness {m},Air Temperature Sensor Height Above Ground {m},Wind Speed Modifier Coefficient-Internal,Temperature Modifier Coefficient-Internal
Environment:Weather Station,10.000,0.140,270.000,1.500,1.586,9.750E-003
! <Site:Location>, Location Name, Latitude {N+/S- Deg}, Longitude {E+/W- Deg},  Time Zone Number {GMT+/-}, Elevation {m},  Standard Pressure at Elevation {Pa}, Standard RhoAir at Elevation
Site:Location,Chicago Ohare Intl Ap IL USA TMY3 WMO#=725300,41.98,-87.92,-6.00,201.00,98934,1.1759
! <Site Water Mains Temperature Information>,Calculation Method{},Water Mains Temperature Schedule Name{},Annual Average Outdoor Air Temperature{C},Maximum Difference In Monthly Average Outdoor Air Temperatures{deltaC},Fixed Default Water Mains Temperature{C}
Site Water Mains Temperature Information,FixedDefault,NA,NA,NA,10.0
! <Building Information>, Building Name,North Axis {deg},Terrain,  Loads Convergence Tolerance Value,Temperature Convergence Tolerance Value,  Solar Distribution,Maximum Number of Warmup Days,Minimum Number of Warmup Days
 Building Information,Professional Building,0.000,Suburbs,4.00000E-002,0.20000,FullInteriorAndExterior,15,6
! <Inside Convection Algorithm>, Algorithm {Simple | TARP | CeilingDiffuser | AdaptiveConvectionAlgorithm}
Inside Convection Algorithm,TARP
! <Outside Convection Algorithm>, Algorithm {SimpleCombined | TARP | MoWitt | DOE-2 | AdaptiveConvectionAlgorithm}
Outside Convection Algorithm,DOE-2
! <Sky Radiance Distribution>, Value {Anisotropic}
Sky Radiance Distribution,Anisotropic
! <Zone Air Solution Algorithm>, Algorithm {ThirdOrderBackwardDifference | AnalyticalSolution | EulerMethod}, Space Heat Balance Sizing, Space Heat Balance Simulation
 Zone Air Solution Algorithm, ThirdOrderBackwardDifference, No, No
! <Zone Air Carbon Dioxide Balance Simulation>, Simulation {Yes/No}, Carbon Dioxide Concentration
 Zone Air Carbon Dioxide Balance Simulation, No,N/A
! <Zone Air Generic Contaminant Balance Simulation>, Simulation {Yes/No}, Generic Contaminant Concentration
 Zone Air Generic Contaminant Balance Simulation, No,N/A
! <Zone Air Mass Flow Balance Simulation>, Enforce Mass Balance, Adjust Zone Mixing and Return {AdjustMixingOnly | AdjustReturnOnly | AdjustMixingThenReturn | AdjustReturnThenMixing | None}, Adjust Zone Infiltration {AddInfiltration | AdjustInfiltration | None}, Infiltration Zones {MixingSourceZonesOnly | AllZones}
 Zone Air Mass Flow Balance Simulation, No,N/A,N/A,N/A
! <HVACSystemRootFindingAlgorithm>, Value {RegulaFalsi | Bisection | BisectionThenRegulaFalsi | RegulaFalsiThenBisection}
 HVACSystemRootFindingAlgorithm, RegulaFalsi
! <Environment:Site Atmospheric Variation>,Wind Speed Profile Exponent {},Wind Speed Profile Boundary Layer Thickness {m},Air Temperature Gradient Coefficient {K/m}
Environment:Site Atmospheric Variation,0.220,370.000,6.500000E-003
! <Shadowing/Sun Position Calculations Annual Simulations>, Shading Calculation Method, Shading Calculation Update Frequency Method, Shading Calculation Update Frequency {days}, Maximum Figures in Shadow Overlap Calculations {}, Polygon Clipping Algorithm, Pixel Counting Resolution, Sky Diffuse Modeling Algorithm, Output External Shading Calculation Results, Disable Self-Shading Within Shading Zone Groups, Disable Self-Shading From Shading Zone Groups to Other Zones
Shadowing/Sun Position Calculations Annual Simulations,PolygonClipping,Periodic,20,15000,SutherlandHodgman,512,SimpleSkyDiffuseModeling,No,No,No
! <Surface Geometry>,Starting Corner,Vertex Input Direction,Coordinate System,Daylight Reference Point Coordinate System,Rectangular (Simple) Surface Coordinate System
 Surface Geometry,UpperLeftCorner,Counterclockwise,RelativeCoordinateSystem,RelativeCoordinateSystem,RelativeToZoneOrigin
! <Surface Heat Transfer Algorithm>, Value {CTF - ConductionTransferFunction | EMPD - MoisturePenetrationDepthConductionTransferFunction | CondFD - ConductionFiniteDifference | HAMT - CombinedHeatAndMoistureFiniteElement} - Description,Inside Surface Max Temperature Limit{C}, Surface Convection Coefficient Lower Limit {W/m2-K}, Surface Convection Coefficient Upper Limit {W/m2-K}
Surface Heat Transfer Algorithm, CTF - ConductionTransferFunction,200,0.10,1000.0
! <Shading Summary>, Number of Fixed Detached Shades, Number of Building Detached Shades, Number of Attached Shades
 Shading Summary,0,0,0
! <Zone Summary>, Number of Zones, Number of Zone Surfaces, Number of SubSurfaces
 Zone Summary,15,165,60
! <Zone Information>,Zone Name,North Axis {deg},Origin X-Coordinate {m},Origin Y-Coordinate {m},Origin Z-Coordinate {m},Centroid X-Coordinate {m},Centroid Y-Coordinate {m},Centroid Z-Coordinate {m},Type,Zone Multiplier,Zone List Multiplier,Minimum X {m},Maximum X {m},Minimum Y {m},Maximum Y {m},Minimum Z {m},Maximum Z {m},Ceiling Height {m},Volume {m3},Zone Inside Convection Algorithm {Simple-Detailed-CeilingDiffuser-TrombeWall},Zone Outside Convection Algorithm {Simple-Detailed-Tarp-MoWitt-DOE-2-BLAST}, Floor Area {m2},Exterior Gross Wall Area {m2},Exterior Net Wall Area {m2},Exterior Window Area {m2}, Number of Surfaces, Number of SubSurfaces, Number of Shading SubSurfaces,  Part of Total Building Area
 Zone Information, LOBBY_0,0.0,0.00,0.00,0.00,7.72,3.01,1.50,1,1,1,1.90,13.55,0.94,5.08,0.00,3.00,3.00,139.92,TARP,DOE-2,46.64,93.51,65.37,28.15,6,4,0,Yes
 Zone Information, CONFERENCE_0,0.0,0.00,0.00,0.00,11.02,3.16,1.50,1,1,1,8.17,13.88,1.09,5.23,0.00,3.00,3.00,67.96,TARP,DOE-2,22.65,57.89,40.46,17.42,6,4,0,Yes
 Zone Information, BREAK_ROOM_0,0.0,0.00,0.00,0.00,8.56,3.10,1.50,1,1,1,5.94,11.19,1.04,5.17,0.00,3.00,3.00,62.36,TARP,DOE-2,20.79,55.11,38.52,16.59,6,4,0,Yes
 Zone Information, MECHANICAL_0,0.0,0.00,0.00,0.00,4.04,2.68,1.50,1,1,1,1.63,6.46,0.61,4.75,0.00,3.00,3.00,57.29,TARP,DOE-2,19.10,52.60,36.77,15.83,6,4,0,Yes
 Zone Information, LOBBY_1,0.0,0.00,0.00,0.00,5.04,2.75,4.50,1,1,1,1.69,8.39,0.68,4.82,3.00,6.00,3.00,80.03,TARP,DOE-2,26.68,63.86,44.64,19.22,6,4,0,Yes
 Zone Information, CONFERENCE_1,0.0,0.00,0.00,0.00,5.54,2.60,4.50,1,1,1,0.77,10.31,0.53,4.67,3.00,6.00,3.00,114.43,TARP,DOE-2,38.14,80.89,56.54,24.35,6,4,0,Yes
 Zone Information, LOBBY_2,0.0,0.00,0.00,0.00,6.13,2.98,7.50,1,1,1,1.43,10.83,0.91,5.05,6.00,9.00,3.00,112.71,TARP,DOE-2,37.57,80.04,55.95,24.09,6,4,0,Yes
 Zone Information, CONFERENCE_2,0.0,0.00,0.00,0.00,6.97,3.06,7.50,1,1,1,3.38,10.56,0.99,5.13,6.00,9.00,3.00,85.73,TARP,DOE-2,28.58,66.68,46.61,20.07,6,4,0,Yes
 Zone Information, MECHANICAL_2,0.0,0.00,0.00,0.00,6.47,2.62,7.50,1,1,1,2.73,10.22,0.55,4.69,6.00,9.00,3.00,89.49,TARP,DOE-2,29.83,68.54,47.91,20.63,6,4,0,Yes
 Zone Information, LOBBY_3,0.0,0.00,0.00,0.00,6.78,2.79,10.50,1,1,1,0.95,12.60,0.72,4.86,9.00,12.00,3.00,139.92,TARP,DOE-2,46.64,93.51,65.37,28.15,6,4,0,Yes
 Zone Information, CONFERENCE_3,0.0,0.00,0.00,0.00,8.78,2.64,10.50,1,1,1,4.37,13.18,0.57,4.71,9.00,12.00,3.00,105.57,TARP,DOE-2,35.19,76.50,53.48,23.03,6,4,0,Yes
 Zone Information, BREAK_ROOM_3,0.0,0.00,0.00,0.00,8.29,2.95,10.50,1,1,1,4.63,11.95,0.88,5.02,9.00,12.00,3.00,87.47,TARP,DOE-2,29.16,67.54,47.21,20.33,6,4,0,Yes
 Zone Information, MECHANICAL_3,0.0,0.00,0.00,0.00,8.72,3.02,10.50,1,1,1,5.22,12.22,0.95,5.09,9.00,12.00,3.00,83.61,TARP,DOE-2,27.87,65.63,45.88,19.75,6,4,0,Yes
 Zone Information, LOBBY_4,0.0,0.00,0.00,0.00,6.68,2.82,13.50,1,1,1,2.15,11.20,0.75,4.89,12.00,15.00,3.00,108.44,TARP,DOE-2,36.15,77.93,54.47,23.45,6,4,0,Yes
 Zone Information, BREAK_ROOM_4,0.0,0.00,0.00,0.00,10.25,2.84,13.50,1,1,1,7.43,13.08,0.77,4.91,12.00,15.00,3.00,67.26,TARP,DOE-2,22.42,57.54,40.22,17.32,6,4,0,Yes
! <Zone Internal Gains Nominal>,Zone Name, Floor Area {m2},# Occupants,Area per Occupant {m2/person},Occupant per Area {person/m2},Interior Lighting {W/m2},Electric Load {W/m2},Gas Load {W/m2},Other Load {W/m2},Hot Water Eq {W/m2},Steam Equipment {W/m2},Sum Loads per Area {W/m2},Outdoor Controlled Baseboard Heat
 Zone Internal Gains Nominal, LOBBY_0,46.64,2.0,23.320,4.288E-002,12.900,3.200,0.000,0.000,0.000,0.000,16.100,No
 Zone Internal Gains Nominal, CONFERENCE_0,22.65,4.0,5.664,0.177,10.800,8.100,0.000,0.000,0.000,0.000,18.900,No
 Zone Internal Gains Nominal, BREAK_ROOM_0,20.79,2.0,10.393,9.621E-002,8.100,15.000,0.000,0.000,0.000,0.000,23.100,No
 Zone Internal Gains Nominal, MECHANICAL_0,19.10,1.0,19.098,5.236E-002,5.400,0.000,0.000,0.000,0.000,0.000,5.400,No
 Zone Internal Gains Nominal, LOBBY_1,26.68,1.0,26.675,3.749E-002,12.900,3.200,0.000,0.000,0.000,0.000,16.100,No
 Zone Internal Gains Nominal, CONFERENCE_1,38.14,7.0,5.449,0.184,10.800,8.100,0.000,0.000,0.000,0.000,18.900,No
 Zone Internal Gains Nominal, LOBBY_2,37.57,1.0,37.571,2.662E-002,12.900,3.200,0.000,0.000,0.000,0.000,16.100,No
 Zone Internal Gains Nominal, CONFERENCE_2,28.58,5.0,5.715,0.175,10.800,8.100,0.000,0.000,0.000,0.000,18.900,No
 Zone Internal Gains Nominal, MECHANICAL_2,29.83,1.0,29.830,3.352E-002,5.400,0.000,0.000,0.000,0.000,0.000,5.400,No
 Zone Internal Gains Nominal, LOBBY_3,46.64,2.0,23.321,4.288E-002,12.900,3.200,0.000,0.000,0.000,0.000,16.100,No
 Zone Internal Gains Nominal, CONFERENCE_3,35.19,7.0,5.027,0.199,10.800,8.100,0.000,0.000,0.000,0.000,18.900,No
 Zone Internal Gains Nominal, BREAK_ROOM_3,29.16,2.0,14.578,6.859E-002,8.100,15.000,0.000,0.000,0.000,0.000,23.100,No
 Zone Internal Gains Nominal, MECHANICAL_3,27.87,1.0,27.869,3.588E-002,5.400,0.000,0.000,0.000,0.000,0.000,5.400,No
 Zone Internal Gains Nominal, LOBBY_4,36.15,1.0,36.146,2.767E-002,12.900,3.200,0.000,0.000,0.000,0.000,16.100,No
 Zone Internal Gains Nominal, BREAK_ROOM_4,22.42,2.0,11.209,8.921E-002,8.100,15.000,0.000,0.000,0.000,0.000,23.100,No
! <People Internal Gains Nominal>,Name,Schedule Name,Zone Name,Zone Floor Area {m2},# Zone Occupants,Number of People {},People/Floor Area {person/m2},Floor Area per person {m2/person},Fraction Radiant,Fraction Convected,Sensible Fraction Calculation,Activity level,ASHRAE 55 Warnings,Carbon Dioxide Generation Rate,Minimum Number of People for All Day Types,Maximum Number of People for All Day Types,Minimum Number of People for Weekdays, Maximum Number of People for Weekdays, Minimum Number of People for Weekends/Holidays, Maximum Number of People for Weekends /Holidays,Minimum Number of People for Summer Design Days, Maximum Number of People for Summer Design Days,Minimum Number of People for Winter Design Days, Maximum Number of People for Winter Design Days
 People Internal Gains Nominal, LOBBY_0_PEOPLE,LOBBY_OCCUPANCY,LOBBY_0,46.64,2.0,2.0,4.288E-002,23.320,0.300,0.700,0.100,LOBBY_ACTIVITY,No,3.8200E-008,0.4,0.4,0.4,0.4,0.4,0.4,0.4,0.4,0.4,0.4,
 People Internal Gains Nominal, CONFERENCE_0_PEOPLE,CONFERENCE_OCCUPANCY,CONFERENCE_0,22.65,4.0,4.0,0.177,5.664,0.300,0.700,0.100,CONFERENCE_ACTIVITY,No,3.8200E-008,0.0,4.0,0.0,4.0,0.0,0.4,0.0,0.0,0.0,0.0,
 People Internal Gains Nominal, BREAK_ROOM_0_PEOPLE,BREAK_ROOM_OCCUPANCY,BREAK_ROOM_0,20.79,2.0,2.0,9.621E-002,10.393,0.300,0.700,0.100,BREAK_ROOM_ACTIVITY,No,3.8200E-008,0.4,0.4,0.4,0.4,0.4,0.4,0.4,0.4,0.4,0.4,
 People Internal Gains Nominal, MECHANICAL_0_PEOPLE,MECHANICAL_OCCUPANCY,MECHANICAL_0,19.10,1.0,1.0,5.236E-002,19.098,0.300,0.700,0.100,MECHANICAL_ACTIVITY,No,3.8200E-008,0.2,0.2,0.2,0.2,0.2,0.2,0.2,0.2,0.2,0.2,
 People Internal Gains Nominal, LOBBY_1_PEOPLE,LOBBY_OCCUPANCY,LOBBY_1,26.68,1.0,1.0,3.749E-002,26.675,0.300,0.700,0.100,LOBBY_ACTIVITY,No,3.8200E-008,0.2,0.2,0.2,0.2,0.2,0.2,0.2,0.2,0.2,0.2,
 People Internal Gains Nominal, CONFERENCE_1_PEOPLE,CONFERENCE_OCCUPANCY,CONFERENCE_1,38.14,7.0,7.0,0.184,5.449,0.300,0.700,0.100,CONFERENCE_ACTIVITY,No,3.8200E-008,0.0,7.0,0.0,7.0,0.0,0.7,0.0,0.0,0.0,0.0,
 People Internal Gains Nominal, LOBBY_2_PEOPLE,LOBBY_OCCUPANCY,LOBBY_2,37.57,1.0,1.0,2.662E-002,37.571,0.300,0.700,0.100,LOBBY_ACTIVITY,No,3.8200E-008,0.2,0.2,0.2,0.2,0.2,0.2,0.2,0.2,0.2,0.2,
 People Internal Gains Nominal, CONFERENCE_2_PEOPLE,CONFERENCE_OCCUPANCY,CONFERENCE_2,28.58,5.0,5.0,0.175,5.715,0.300,0.700,0.100,CONFERENCE_ACTIVITY,No,3.8200E-008,0.0,5.0,0.0,5.0,0.0,0.5,0.0,0.0,0.0,0.0,
 People Internal Gains Nominal, MECHANICAL_2_PEOPLE,MECHANICAL_OCCUPANCY,MECHANICAL_2,29.83,1.0,1.0,3.352E-002,29.830,0.300,0.700,0.100,MECHANICAL_ACTIVITY,No,3.8200E-008,0.2,0.2,0.2,0.2,0.2,0.2,0.2,0.2,0.2,0.2,
 People Internal Gains Nominal, LOBBY_3_PEOPLE,LOBBY_OCCUPANCY,LOBBY_3,46.64,2.0,2.0,4.288E-002,23.321,0.300,0.700,0.100,LOBBY_ACTIVITY,No,3.8200E-008,0.4,0.4,0.4,0.4,0.4,0.4,0.4,0.4,0.4,0.4,
 People Internal Gains Nominal, CONFERENCE_3_PEOPLE,CONFERENCE_OCCUPANCY,CONFERENCE_3,35.19,7.0,7.0,0.199,5.027,0.300,0.700,0.100,CONFERENCE_ACTIVITY,No,3.8200E-008,0.0,7.0,0.0,7.0,0.0,0.7,0.0,0.0,0.0,0.0,
 People Internal Gains Nominal, BREAK_ROOM_3_PEOPLE,BREAK_ROOM_OCCUPANCY,BREAK_ROOM_3,29.16,2.0,2.0,6.859E-002,14.578,0.300,0.700,0.100,BREAK_ROOM_ACTIVITY,No,3.8200E-008,0.4,0.4,0.4,0.4,0.4,0.4,0.4,0.4,0.4,0.4,
 People Internal Gains Nominal, MECHANICAL_3_PEOPLE,MECHANICAL_OCCUPANCY,MECHANICAL_3,27.87,1.0,1.0,3.588E-002,27.869,0.300,0.700,0.100,MECHANICAL_ACTIVITY,No,3.8200E-008,0.2,0.2,0.2,0.2,0.2,0.2,0.2,0.2,0.2,0.2,
 People Internal Gains Nominal, LOBBY_4_PEOPLE,LOBBY_OCCUPANCY,LOBBY_4,36.15,1.0,1.0,2.767E-002,36.146,0.300,0.700,0.100,LOBBY_ACTIVITY,No,3.8200E-008,0.2,0.2,0.2,0.2,0.2,0.2,0.2,0.2,0.2,0.2,
 People Internal Gains Nominal, BREAK_ROOM_4_PEOPLE,BREAK_ROOM_OCCUPANCY,BREAK_ROOM_4,22.42,2.0,2.0,8.921E-002,11.209,0.300,0.700,0.100,BREAK_ROOM_ACTIVITY,No,3.8200E-008,0.4,0.4,0.4,0.4,0.4,0.4,0.4,0.4,0.4,0.4,
! <Lights Internal Gains Nominal>,Name,Schedule Name,Zone Name,Zone Floor Area {m2},# Zone Occupants,Lighting Level {W},Lights/Floor Area {W/m2},Lights per person {W/person},Fraction Return Air,Fraction Radiant,Fraction Short Wave,Fraction Convected,Fraction Replaceable,End-Use, Minimum Lighting Level for All Day Types {W},Maximum Lighting Level for All Day Types {W},Minimum Lighting Level for Weekdays {W}, Maximum Lighting Level for Weekdays {W},Minimum Lighting Level for Weekends/Holidays {W}, Maximum Lighting Level for Weekends /Holidays {W},Minimum Lighting Level for Summer Design Days {W}, Maximum Lighting Level for Summer Design Days {W},Minimum Lighting Level for Winter Design Days {W}, Maximum Lighting Level for Winter Design Days {W}
 Lights Internal Gains Nominal, LOBBY_0_LIGHTS,LOBBY_LIGHTING,LOBBY_0,46.64,2.0,601.667,12.900,300.834,0.000,0.300,0.200,0.500,1.000,General,0.000,601.667,60.167,601.7,0.000,120.333,0.000,0.000,0.000,0.000
 Lights Internal Gains Nominal, CONFERENCE_0_LIGHTS,CONFERENCE_LIGHTING,CONFERENCE_0,22.65,4.0,244.671,10.800,61.168,0.000,0.300,0.200,0.500,1.000,General,0.000,244.671,24.467,244.7,0.000,48.934,0.000,0.000,0.000,0.000
 Lights Internal Gains Nominal, BREAK_ROOM_0_LIGHTS,BREAK_ROOM_LIGHTING,BREAK_ROOM_0,20.79,2.0,168.374,8.100,84.187,0.000,0.300,0.200,0.500,1.000,General,0.000,168.374,16.837,168.4,0.000,33.675,0.000,0.000,0.000,0.000
 Lights Internal Gains Nominal, MECHANICAL_0_LIGHTS,MECHANICAL_LIGHTING,MECHANICAL_0,19.10,1.0,103.127,5.400,103.127,0.000,0.300,0.200,0.500,1.000,General,0.000,103.127,10.313,103.1,0.000,20.625,0.000,0.000,0.000,0.000
 Lights Internal Gains Nominal, LOBBY_1_LIGHTS,LOBBY_LIGHTING,LOBBY_1,26.68,1.0,344.109,12.900,344.109,0.000,0.300,0.200,0.500,1.000,General,0.000,344.109,34.411,344.1,0.000,68.822,0.000,0.000,0.000,0.000
 Lights Internal Gains Nominal, CONFERENCE_1_LIGHTS,CONFERENCE_LIGHTING,CONFERENCE_1,38.14,7.0,411.933,10.800,58.848,0.000,0.300,0.200,0.500,1.000,General,0.000,411.933,41.193,411.9,0.000,82.387,0.000,0.000,0.000,0.000
 Lights Internal Gains Nominal, LOBBY_2_LIGHTS,LOBBY_LIGHTING,LOBBY_2,37.57,1.0,484.671,12.900,484.671,0.000,0.300,0.200,0.500,1.000,General,0.000,484.671,48.467,484.7,0.000,96.934,0.000,0.000,0.000,0.000
 Lights Internal Gains Nominal, CONFERENCE_2_LIGHTS,CONFERENCE_LIGHTING,CONFERENCE_2,28.58,5.0,308.632,10.800,61.726,0.000,0.300,0.200,0.500,1.000,General,0.000,308.632,30.863,308.6,0.000,61.726,0.000,0.000,0.000,0.000
 Lights Internal Gains Nominal, MECHANICAL_2_LIGHTS,MECHANICAL_LIGHTING,MECHANICAL_2,29.83,1.0,161.080,5.400,161.080,0.000,0.300,0.200,0.500,1.000,General,0.000,161.080,16.108,161.1,0.000,32.216,0.000,0.000,0.000,0.000
 Lights Internal Gains Nominal, LOBBY_3_LIGHTS,LOBBY_LIGHTING,LOBBY_3,46.64,2.0,601.672,12.900,300.836,0.000,0.300,0.200,0.500,1.000,General,0.000,601.672,60.167,601.7,0.000,120.334,0.000,0.000,0.000,0.000
 Lights Internal Gains Nominal, CONFERENCE_3_LIGHTS,CONFERENCE_LIGHTING,CONFERENCE_3,35.19,7.0,380.036,10.800,54.291,0.000,0.300,0.200,0.500,1.000,General,0.000,380.036,38.004,380.0,0.000,76.007,0.000,0.000,0.000,0.000
 Lights Internal Gains Nominal, BREAK_ROOM_3_LIGHTS,BREAK_ROOM_LIGHTING,BREAK_ROOM_3,29.16,2.0,236.169,8.100,118.085,0.000,0.300,0.200,0.500,1.000,General,0.000,236.169,23.617,236.2,0.000,47.234,0.000,0.000,0.000,0.000
 Lights Internal Gains Nominal, MECHANICAL_3_LIGHTS,MECHANICAL_LIGHTING,MECHANICAL_3,27.87,1.0,150.490,5.400,150.490,0.000,0.300,0.200,0.500,1.000,General,0.000,150.490,15.049,150.5,0.000,30.098,0.000,0.000,0.000,0.000
 Lights Internal Gains Nominal, LOBBY_4_LIGHTS,LOBBY_LIGHTING,LOBBY_4,36.15,1.0,466.287,12.900,466.287,0.000,0.300,0.200,0.500,1.000,General,0.000,466.287,46.629,466.3,0.000,93.257,0.000,0.000,0.000,0.000
 Lights Internal Gains Nominal, BREAK_ROOM_4_LIGHTS,BREAK_ROOM_LIGHTING,BREAK_ROOM_4,22.42,2.0,181.592,8.100,90.796,0.000,0.300,0.200,0.500,1.000,General,0.000,181.592,18.159,181.6,0.000,36.318,0.000,0.000,0.000,0.000
! <ElectricEquipment Internal Gains Nominal>,Name,Schedule Name,Zone Name,Zone Floor Area {m2},# Zone Occupants,Equipment Level {W},Equipment/Floor Area {W/m2},Equipment per person {W/person},Fraction Latent,Fraction Radiant,Fraction Lost,Fraction Convected,End-Use SubCategory,Minimum Equipment Level for All Day Types {W},Maximum Equipment Level for All Day Types {W},Minimum Equipment Level for Weekdays {W}, Maximum Equipment Level for Weekdays {W},Minimum Equipment Level for Weekends/Holidays {W}, Maximum Equipment Level for Weekends /Holidays {W},Minimum Equipment Level for Summer Design Days {W}, Maximum Equipment Level for Summer Design Days {W},Minimum Equipment Level for Winter Design Days {W}, Maximum Equipment Level for Winter Design Days {W}
 ElectricEquipment Internal Gains Nominal, LOBBY_0_EQUIPMENT,LOBBY_EQUIPMENT,LOBBY_0,46.64,2.0,149.251,3.200,74.625,0.100,0.200,0.000,0.700,General,0.000,119.401,44.775,119.401,0.000,44.775,0.000,0.000,0.000,0.000
 ElectricEquipment Internal Gains Nominal, CONFERENCE_0_EQUIPMENT,CONFERENCE_EQUIPMENT,CONFERENCE_0,22.65,4.0,183.503,8.100,45.876,0.100,0.200,0.000,0.700,General,0.000,146.803,55.051,146.803,0.000,55.051,0.000,0.000,0.000,0.000
 ElectricEquipment Internal Gains Nominal, BREAK_ROOM_0_EQUIPMENT,BREAK_ROOM_EQUIPMENT,BREAK_ROOM_0,20.79,2.0,311.803,15.000,155.901,0.100,0.200,0.000,0.700,General,0.000,249.442,93.541,249.442,0.000,93.541,0.000,0.000,0.000,0.000
 ElectricEquipment Internal Gains Nominal, MECHANICAL_0_EQUIPMENT,MECHANICAL_EQUIPMENT,MECHANICAL_0,19.10,1.0,0.000,0.000,0.000,0.100,0.200,0.000,0.700,General,0.000,0.000,0.000,0.000,0.000,0.000,0.000,0.000,0.000,0.000
 ElectricEquipment Internal Gains Nominal, LOBBY_1_EQUIPMENT,LOBBY_EQUIPMENT,LOBBY_1,26.68,1.0,85.360,3.200,85.360,0.100,0.200,0.000,0.700,General,0.000,68.288,25.608,68.288,0.000,25.608,0.000,0.000,0.000,0.000
 ElectricEquipment Internal Gains Nominal, CONFERENCE_1_EQUIPMENT,CONFERENCE_EQUIPMENT,CONFERENCE_1,38.14,7.0,308.949,8.100,44.136,0.100,0.200,0.000,0.700,General,0.000,247.160,92.685,247.160,0.000,92.685,0.000,0.000,0.000,0.000
 ElectricEquipment Internal Gains Nominal, LOBBY_2_EQUIPMENT,LOBBY_EQUIPMENT,LOBBY_2,37.57,1.0,120.228,3.200,120.228,0.100,0.200,0.000,0.700,General,0.000,96.183,36.069,96.183,0.000,36.069,0.000,0.000,0.000,0.000
 ElectricEquipment Internal Gains Nominal, CONFERENCE_2_EQUIPMENT,CONFERENCE_EQUIPMENT,CONFERENCE_2,28.58,5.0,231.474,8.100,46.295,0.100,0.200,0.000,0.700,General,0.000,185.179,69.442,185.179,0.000,69.442,0.000,0.000,0.000,0.000
 ElectricEquipment Internal Gains Nominal, MECHANICAL_2_EQUIPMENT,MECHANICAL_EQUIPMENT,MECHANICAL_2,29.83,1.0,0.000,0.000,0.000,0.100,0.200,0.000,0.700,General,0.000,0.000,0.000,0.000,0.000,0.000,0.000,0.000,0.000,0.000
 ElectricEquipment Internal Gains Nominal, LOBBY_3_EQUIPMENT,LOBBY_EQUIPMENT,LOBBY_3,46.64,2.0,149.252,3.200,74.626,0.100,0.200,0.000,0.700,General,0.000,119.402,44.776,119.402,0.000,44.776,0.000,0.000,0.000,0.000
 ElectricEquipment Internal Gains Nominal, CONFERENCE_3_EQUIPMENT,CONFERENCE_EQUIPMENT,CONFERENCE_3,35.19,7.0,285.027,8.100,40.718,0.100,0.200,0.000,0.700,General,0.000,228.022,85.508,228.022,0.000,85.508,0.000,0.000,0.000,0.000
 ElectricEquipment Internal Gains Nominal, BREAK_ROOM_3_EQUIPMENT,BREAK_ROOM_EQUIPMENT,BREAK_ROOM_3,29.16,2.0,437.351,15.000,218.675,0.100,0.200,0.000,0.700,General,0.000,349.880,131.205,349.880,0.000,131.205,0.000,0.000,0.000,0.000
 ElectricEquipment Internal Gains Nominal, MECHANICAL_3_EQUIPMENT,MECHANICAL_EQUIPMENT,MECHANICAL_3,27.87,1.0,0.000,0.000,0.000,0.100,0.200,0.000,0.700,General,0.000,0.000,0.000,0.000,0.000,0.000,0.000,0.000,0.000,0.000
 ElectricEquipment Internal Gains Nominal, LOBBY_4_EQUIPMENT,LOBBY_EQUIPMENT,LOBBY_4,36.15,1.0,115.668,3.200,115.668,0.100,0.200,0.000,0.700,General,0.000,92.534,34.700,92.534,0.000,34.700,0.000,0.000,0.000,0.000
 ElectricEquipment Internal Gains Nominal, BREAK_ROOM_4_EQUIPMENT,BREAK_ROOM_EQUIPMENT,BREAK_ROOM_4,22.42,2.0,336.282,15.000,168.141,0.100,0.200,0.000,0.700,General,0.000,269.026,100.885,269.026,0.000,100.885,0.000,0.000,0.000,0.000
! <Enclosure/Window Adjacency Daylighting Counts>, Enclosure Name, Number of Exterior Windows, Number of Exterior Windows in Adjacent Enclosures
Enclosure/Window Adjacency Daylighting Counts, LOBBY_0,4,0
Enclosure/Window Adjacency Daylighting Counts, CONFERENCE_0,4,0
Enclosure/Window Adjacency Daylighting Counts, BREAK_ROOM_0,4,0
Enclosure/Window Adjacency Daylighting Counts, LOBBY_1,4,0
Enclosure/Window Adjacency Daylighting Counts, CONFERENCE_1,4,0
Enclosure/Window Adjacency Daylighting Counts, LOBBY_2,4,0
Enclosure/Window Adjacency Daylighting Counts, CONFERENCE_2,4,0
Enclosure/Window Adjacency Daylighting Counts, LOBBY_3,4,0
Enclosure/Window Adjacency Daylighting Counts, CONFERENCE_3,4,0
Enclosure/Window Adjacency Daylighting Counts, BREAK_ROOM_3,4,0
Enclosure/Window Adjacency Daylighting Counts, LOBBY_4,4,0
Enclosure/Window Adjacency Daylighting Counts, BREAK_ROOM_4,4,0
! <Enclosure/Window Adjacency Daylighting Matrix>, Enclosure Name, Number of Adjacent Enclosures with Windows,Adjacent Enclosure Names - 1st 100 (max)
Enclosure/Window Adjacency Daylighting Matrix, LOBBY_0,0
Enclosure/Window Adjacency Daylighting Matrix, CONFERENCE_0,0
Enclosure/Window Adjacency Daylighting Matrix, BREAK_ROOM_0,0
Enclosure/Window Adjacency Daylighting Matrix, LOBBY_1,0
Enclosure/Window Adjacency Daylighting Matrix, CONFERENCE_1,0
Enclosure/Window Adjacency Daylighting Matrix, LOBBY_2,0
Enclosure/Window Adjacency Daylighting Matrix, CONFERENCE_2,0
Enclosure/Window Adjacency Daylighting Matrix, LOBBY_3,0
Enclosure/Window Adjacency Daylighting Matrix, CONFERENCE_3,0
Enclosure/Window Adjacency Daylighting Matrix, BREAK_ROOM_3,0
Enclosure/Window Adjacency Daylighting Matrix, LOBBY_4,0
Enclosure/Window Adjacency Daylighting Matrix, BREAK_ROOM_4,0
! <ZoneInfiltration Airflow Stats Nominal>,Name,Schedule Name,Zone Name, Zone Floor Area {m2}, # Zone Occupants,Design Volume Flow Rate {m3/s},Volume Flow Rate/Floor Area {m3/s-m2},Volume Flow Rate/Exterior Surface Area {m3/s-m2},ACH - Air Changes per Hour,Equation A - Constant Term Coefficient {},Equation B - Temperature Term Coefficient {1/C},Equation C - Velocity Term Coefficient {s/m}, Equation D - Velocity Squared Term Coefficient {s2/m2}
 ZoneInfiltration Airflow Stats Nominal, LOBBY_0_INFILTRATION,LOBBY_0_INFILTRATION_SCHEDULE,LOBBY_0,46.64,2.0,0.000,0.000,0.000,0.000,0.000,0.000,0.000,0.000
 ZoneInfiltration Airflow Stats Nominal, CONFERENCE_0_INFILTRATION,CONFERENCE_0_INFILTRATION_SCHEDULE,CONFERENCE_0,22.65,4.0,0.000,0.000,0.000,0.000,0.000,0.000,0.000,0.000
 ZoneInfiltration Airflow Stats Nominal, BREAK_ROOM_0_INFILTRATION,BREAK_ROOM_0_INFILTRATION_SCHEDULE,BREAK_ROOM_0,20.79,2.0,0.000,0.000,0.000,0.000,0.000,0.000,0.000,0.000
 ZoneInfiltration Airflow Stats Nominal, MECHANICAL_0_INFILTRATION,MECHANICAL_0_INFILTRATION_SCHEDULE,MECHANICAL_0,19.10,1.0,0.000,0.000,0.000,0.000,0.000,0.000,0.000,0.000
 ZoneInfiltration Airflow Stats Nominal, LOBBY_1_INFILTRATION,LOBBY_1_INFILTRATION_SCHEDULE,LOBBY_1,26.68,1.0,0.000,0.000,0.000,0.000,0.000,0.000,0.000,0.000
 ZoneInfiltration Airflow Stats Nominal, CONFERENCE_1_INFILTRATION,CONFERENCE_1_INFILTRATION_SCHEDULE,CONFERENCE_1,38.14,7.0,0.000,0.000,0.000,0.000,0.000,0.000,0.000,0.000
 ZoneInfiltration Airflow Stats Nominal, LOBBY_2_INFILTRATION,LOBBY_2_INFILTRATION_SCHEDULE,LOBBY_2,37.57,1.0,0.000,0.000,0.000,0.000,0.000,0.000,0.000,0.000
 ZoneInfiltration Airflow Stats Nominal, CONFERENCE_2_INFILTRATION,CONFERENCE_2_INFILTRATION_SCHEDULE,CONFERENCE_2,28.58,5.0,0.000,0.000,0.000,0.000,0.000,0.000,0.000,0.000
 ZoneInfiltration Airflow Stats Nominal, MECHANICAL_2_INFILTRATION,MECHANICAL_2_INFILTRATION_SCHEDULE,MECHANICAL_2,29.83,1.0,0.000,0.000,0.000,0.000,0.000,0.000,0.000,0.000
 ZoneInfiltration Airflow Stats Nominal, LOBBY_3_INFILTRATION,LOBBY_3_INFILTRATION_SCHEDULE,LOBBY_3,46.64,2.0,0.000,0.000,0.000,0.000,0.000,0.000,0.000,0.000
 ZoneInfiltration Airflow Stats Nominal, CONFERENCE_3_INFILTRATION,CONFERENCE_3_INFILTRATION_SCHEDULE,CONFERENCE_3,35.19,7.0,0.000,0.000,0.000,0.000,0.000,0.000,0.000,0.000
 ZoneInfiltration Airflow Stats Nominal, BREAK_ROOM_3_INFILTRATION,BREAK_ROOM_3_INFILTRATION_SCHEDULE,BREAK_ROOM_3,29.16,2.0,0.000,0.000,0.000,0.000,0.000,0.000,0.000,0.000
 ZoneInfiltration Airflow Stats Nominal, MECHANICAL_3_INFILTRATION,MECHANICAL_3_INFILTRATION_SCHEDULE,MECHANICAL_3,27.87,1.0,0.000,0.000,0.000,0.000,0.000,0.000,0.000,0.000
 ZoneInfiltration Airflow Stats Nominal, LOBBY_4_INFILTRATION,LOBBY_4_INFILTRATION_SCHEDULE,LOBBY_4,36.15,1.0,0.000,0.000,0.000,0.000,0.000,0.000,0.000,0.000
 ZoneInfiltration Airflow Stats Nominal, BREAK_ROOM_4_INFILTRATION,BREAK_ROOM_4_INFILTRATION_SCHEDULE,BREAK_ROOM_4,22.42,2.0,0.000,0.000,0.000,0.000,0.000,0.000,0.000,0.000
! <AirFlow Model>, Simple
 AirFlow Model, Simple
! <RoomAir Model>, Zone Name, Mixing/Mundt/UCSDDV/UCSDCV/UCSDUFI/UCSDUFE/User Defined
RoomAir Model,LOBBY_0,Mixing/Well-Stirred
RoomAir Model,CONFERENCE_0,Mixing/Well-Stirred
RoomAir Model,BREAK_ROOM_0,Mixing/Well-Stirred
RoomAir Model,MECHANICAL_0,Mixing/Well-Stirred
RoomAir Model,LOBBY_1,Mixing/Well-Stirred
RoomAir Model,CONFERENCE_1,Mixing/Well-Stirred
RoomAir Model,LOBBY_2,Mixing/Well-Stirred
RoomAir Model,CONFERENCE_2,Mixing/Well-Stirred
RoomAir Model,MECHANICAL_2,Mixing/Well-Stirred
RoomAir Model,LOBBY_3,Mixing/Well-Stirred
RoomAir Model,CONFERENCE_3,Mixing/Well-Stirred
RoomAir Model,BREAK_ROOM_3,Mixing/Well-Stirred
RoomAir Model,MECHANICAL_3,Mixing/Well-Stirred
RoomAir Model,LOBBY_4,Mixing/Well-Stirred
RoomAir Model,BREAK_ROOM_4,Mixing/Well-Stirred
! <AirflowNetwork Model:Control>, No Multizone or Distribution/Multizone with Distribution/Multizone without Distribution/Multizone with Distribution only during Fan Operation
AirflowNetwork Model:Control,NoMultizoneOrDistribution
! <Zone Volume Capacitance Multiplier>, Sensible Heat Capacity Multiplier, Moisture Capacity Multiplier, Carbon Dioxide Capacity Multiplier, Generic Contaminant Capacity Multiplier
Zone Volume Capacitance Multiplier,   1.000 ,   1.000,   1.000,   1.000
! <Component Sizing Information>, Component Type, Component Name, Input Field Description, Value
 Component Sizing Information, AirTerminal:SingleDuct:VAV:Reheat, LOBBY_0_Z1_VAVTERMINAL, User-Specified Maximum Air Flow Rate [m3/s], 0.23321
 Component Sizing Information, AirTerminal:SingleDuct:VAV:Reheat, LOBBY_0_Z1_VAVTERMINAL, Design Size Constant Minimum Air Flow Fraction, 0.20000
 Component Sizing Information, AirTerminal:SingleDuct:VAV:Reheat, LOBBY_0_Z1_VAVTERMINAL, User-Specified Constant Minimum Air Flow Fraction, 0.20000
 Component Sizing Information, AirTerminal:SingleDuct:VAV:Reheat, LOBBY_0_Z1_VAVTERMINAL, Design Size Minimum Air Flow Rate [m3/s], 4.66413E-002
 Component Sizing Information, AirTerminal:SingleDuct:VAV:Reheat, LOBBY_0_Z1_VAVTERMINAL, Design Size Maximum Flow per Zone Floor Area during Reheat [m3/s-m2], 1.00001E-003
 Component Sizing Information, AirTerminal:SingleDuct:VAV:Reheat, LOBBY_0_Z1_VAVTERMINAL, Design Size Maximum Flow Fraction during Reheat [], 0.20000
 Component Sizing Information, AirTerminal:SingleDuct:VAV:Reheat, LOBBY_0_Z1_VAVTERMINAL, User-Specified Maximum Reheat Water Flow Rate [m3/s], 3.73130
 Component Sizing Information, Coil:Heating:Electric, LOBBY_0_Z1_REHEATCOIL, User-Specified Nominal Capacity [W], 1119.39115
 Component Sizing Information, AirTerminal:SingleDuct:VAV:Reheat, CONFERENCE_0_Z2_VAVTERMINAL, User-Specified Maximum Air Flow Rate [m3/s], 0.11328
 Component Sizing Information, AirTerminal:SingleDuct:VAV:Reheat, CONFERENCE_0_Z2_VAVTERMINAL, Design Size Constant Minimum Air Flow Fraction, 0.20000
 Component Sizing Information, AirTerminal:SingleDuct:VAV:Reheat, CONFERENCE_0_Z2_VAVTERMINAL, User-Specified Constant Minimum Air Flow Fraction, 0.20000
 Component Sizing Information, AirTerminal:SingleDuct:VAV:Reheat, CONFERENCE_0_Z2_VAVTERMINAL, Design Size Minimum Air Flow Rate [m3/s], 2.26551E-002
 Component Sizing Information, AirTerminal:SingleDuct:VAV:Reheat, CONFERENCE_0_Z2_VAVTERMINAL, Design Size Maximum Flow per Zone Floor Area during Reheat [m3/s-m2], 1.00002E-003
 Component Sizing Information, AirTerminal:SingleDuct:VAV:Reheat, CONFERENCE_0_Z2_VAVTERMINAL, Design Size Maximum Flow Fraction during Reheat [], 0.20000
 Component Sizing Information, AirTerminal:SingleDuct:VAV:Reheat, CONFERENCE_0_Z2_VAVTERMINAL, User-Specified Maximum Reheat Water Flow Rate [m3/s], 1.81241
 Component Sizing Information, Coil:Heating:Electric, CONFERENCE_0_Z2_REHEATCOIL, User-Specified Nominal Capacity [W], 543.72208
 Component Sizing Information, AirTerminal:SingleDuct:VAV:Reheat, BREAK_ROOM_0_Z3_VAVTERMINAL, User-Specified Maximum Air Flow Rate [m3/s], 0.10393
 Component Sizing Information, AirTerminal:SingleDuct:VAV:Reheat, BREAK_ROOM_0_Z3_VAVTERMINAL, Design Size Constant Minimum Air Flow Fraction, 0.20000
 Component Sizing Information, AirTerminal:SingleDuct:VAV:Reheat, BREAK_ROOM_0_Z3_VAVTERMINAL, User-Specified Constant Minimum Air Flow Fraction, 0.20000
 Component Sizing Information, AirTerminal:SingleDuct:VAV:Reheat, BREAK_ROOM_0_Z3_VAVTERMINAL, Design Size Minimum Air Flow Rate [m3/s], 2.07870E-002
 Component Sizing Information, AirTerminal:SingleDuct:VAV:Reheat, BREAK_ROOM_0_Z3_VAVTERMINAL, Design Size Maximum Flow per Zone Floor Area during Reheat [m3/s-m2], 1.00001E-003
 Component Sizing Information, AirTerminal:SingleDuct:VAV:Reheat, BREAK_ROOM_0_Z3_VAVTERMINAL, Design Size Maximum Flow Fraction during Reheat [], 0.20000
 Component Sizing Information, AirTerminal:SingleDuct:VAV:Reheat, BREAK_ROOM_0_Z3_VAVTERMINAL, User-Specified Maximum Reheat Water Flow Rate [m3/s], 1.66296
 Component Sizing Information, Coil:Heating:Electric, BREAK_ROOM_0_Z3_REHEATCOIL, User-Specified Nominal Capacity [W], 498.88743
 Component Sizing Information, AirTerminal:SingleDuct:VAV:Reheat, MECHANICAL_0_Z4_VAVTERMINAL, User-Specified Maximum Air Flow Rate [m3/s], 9.54856E-002
 Component Sizing Information, AirTerminal:SingleDuct:VAV:Reheat, MECHANICAL_0_Z4_VAVTERMINAL, Design Size Constant Minimum Air Flow Fraction, 0.20000
 Component Sizing Information, AirTerminal:SingleDuct:VAV:Reheat, MECHANICAL_0_Z4_VAVTERMINAL, User-Specified Constant Minimum Air Flow Fraction, 0.20000
 Component Sizing Information, AirTerminal:SingleDuct:VAV:Reheat, MECHANICAL_0_Z4_VAVTERMINAL, Design Size Minimum Air Flow Rate [m3/s], 1.90971E-002
 Component Sizing Information, AirTerminal:SingleDuct:VAV:Reheat, MECHANICAL_0_Z4_VAVTERMINAL, Design Size Maximum Flow per Zone Floor Area during Reheat [m3/s-m2], 9.99974E-004
 Component Sizing Information, AirTerminal:SingleDuct:VAV:Reheat, MECHANICAL_0_Z4_VAVTERMINAL, Design Size Maximum Flow Fraction during Reheat [], 0.20000
 Component Sizing Information, AirTerminal:SingleDuct:VAV:Reheat, MECHANICAL_0_Z4_VAVTERMINAL, User-Specified Maximum Reheat Water Flow Rate [m3/s], 1.52777
 Component Sizing Information, Coil:Heating:Electric, MECHANICAL_0_Z4_REHEATCOIL, User-Specified Nominal Capacity [W], 458.33072
 Component Sizing Information, AirTerminal:SingleDuct:VAV:Reheat, LOBBY_1_Z5_VAVTERMINAL, User-Specified Maximum Air Flow Rate [m3/s], 0.13337
 Component Sizing Information, AirTerminal:SingleDuct:VAV:Reheat, LOBBY_1_Z5_VAVTERMINAL, Design Size Constant Minimum Air Flow Fraction, 0.20000
 Component Sizing Information, AirTerminal:SingleDuct:VAV:Reheat, LOBBY_1_Z5_VAVTERMINAL, User-Specified Constant Minimum Air Flow Fraction, 0.20000
 Component Sizing Information, AirTerminal:SingleDuct:VAV:Reheat, LOBBY_1_Z5_VAVTERMINAL, Design Size Minimum Air Flow Rate [m3/s], 2.66743E-002
 Component Sizing Information, AirTerminal:SingleDuct:VAV:Reheat, LOBBY_1_Z5_VAVTERMINAL, Design Size Maximum Flow per Zone Floor Area during Reheat [m3/s-m2], 9.99970E-004
 Component Sizing Information, AirTerminal:SingleDuct:VAV:Reheat, LOBBY_1_Z5_VAVTERMINAL, Design Size Maximum Flow Fraction during Reheat [], 0.20000
 Component Sizing Information, AirTerminal:SingleDuct:VAV:Reheat, LOBBY_1_Z5_VAVTERMINAL, User-Specified Maximum Reheat Water Flow Rate [m3/s], 2.13394
 Component Sizing Information, Coil:Heating:Electric, LOBBY_1_Z5_REHEATCOIL, User-Specified Nominal Capacity [W], 640.18337
 Component Sizing Information, AirTerminal:SingleDuct:VAV:Reheat, CONFERENCE_1_Z6_VAVTERMINAL, User-Specified Maximum Air Flow Rate [m3/s], 0.19071
 Component Sizing Information, AirTerminal:SingleDuct:VAV:Reheat, CONFERENCE_1_Z6_VAVTERMINAL, Design Size Constant Minimum Air Flow Fraction, 0.20000
 Component Sizing Information, AirTerminal:SingleDuct:VAV:Reheat, CONFERENCE_1_Z6_VAVTERMINAL, User-Specified Constant Minimum Air Flow Fraction, 0.20000
 Component Sizing Information, AirTerminal:SingleDuct:VAV:Reheat, CONFERENCE_1_Z6_VAVTERMINAL, Design Size Minimum Air Flow Rate [m3/s], 3.81411E-002
 Component Sizing Information, AirTerminal:SingleDuct:VAV:Reheat, CONFERENCE_1_Z6_VAVTERMINAL, Design Size Maximum Flow per Zone Floor Area during Reheat [m3/s-m2], 9.99978E-004
 Component Sizing Information, AirTerminal:SingleDuct:VAV:Reheat, CONFERENCE_1_Z6_VAVTERMINAL, Design Size Maximum Flow Fraction during Reheat [], 0.20000
 Component Sizing Information, AirTerminal:SingleDuct:VAV:Reheat, CONFERENCE_1_Z6_VAVTERMINAL, User-Specified Maximum Reheat Water Flow Rate [m3/s], 3.05129
 Component Sizing Information, Coil:Heating:Electric, CONFERENCE_1_Z6_REHEATCOIL, User-Specified Nominal Capacity [W], 915.38591
 Component Sizing Information, AirTerminal:SingleDuct:VAV:Reheat, LOBBY_2_Z7_VAVTERMINAL, User-Specified Maximum Air Flow Rate [m3/s], 0.18786
 Component Sizing Information, AirTerminal:SingleDuct:VAV:Reheat, LOBBY_2_Z7_VAVTERMINAL, Design Size Constant Minimum Air Flow Fraction, 0.20000
 Component Sizing Information, AirTerminal:SingleDuct:VAV:Reheat, LOBBY_2_Z7_VAVTERMINAL, User-Specified Constant Minimum Air Flow Fraction, 0.20000
 Component Sizing Information, AirTerminal:SingleDuct:VAV:Reheat, LOBBY_2_Z7_VAVTERMINAL, Design Size Minimum Air Flow Rate [m3/s], 3.75713E-002
 Component Sizing Information, AirTerminal:SingleDuct:VAV:Reheat, LOBBY_2_Z7_VAVTERMINAL, Design Size Maximum Flow per Zone Floor Area during Reheat [m3/s-m2], 9.99998E-004
 Component Sizing Information, AirTerminal:SingleDuct:VAV:Reheat, LOBBY_2_Z7_VAVTERMINAL, Design Size Maximum Flow Fraction during Reheat [], 0.20000
 Component Sizing Information, AirTerminal:SingleDuct:VAV:Reheat, LOBBY_2_Z7_VAVTERMINAL, User-Specified Maximum Reheat Water Flow Rate [m3/s], 3.00571
 Component Sizing Information, Coil:Heating:Electric, LOBBY_2_Z7_REHEATCOIL, User-Specified Nominal Capacity [W], 901.71188
 Component Sizing Information, AirTerminal:SingleDuct:VAV:Reheat, CONFERENCE_2_Z8_VAVTERMINAL, User-Specified Maximum Air Flow Rate [m3/s], 0.14289
 Component Sizing Information, AirTerminal:SingleDuct:VAV:Reheat, CONFERENCE_2_Z8_VAVTERMINAL, Design Size Constant Minimum Air Flow Fraction, 0.20000
 Component Sizing Information, AirTerminal:SingleDuct:VAV:Reheat, CONFERENCE_2_Z8_VAVTERMINAL, User-Specified Constant Minimum Air Flow Fraction, 0.20000
 Component Sizing Information, AirTerminal:SingleDuct:VAV:Reheat, CONFERENCE_2_Z8_VAVTERMINAL, Design Size Minimum Air Flow Rate [m3/s], 2.85771E-002
 Component Sizing Information, AirTerminal:SingleDuct:VAV:Reheat, CONFERENCE_2_Z8_VAVTERMINAL, Design Size Maximum Flow per Zone Floor Area during Reheat [m3/s-m2], 1.00000E-003
 Component Sizing Information, AirTerminal:SingleDuct:VAV:Reheat, CONFERENCE_2_Z8_VAVTERMINAL, Design Size Maximum Flow Fraction during Reheat [], 0.20000
 Component Sizing Information, AirTerminal:SingleDuct:VAV:Reheat, CONFERENCE_2_Z8_VAVTERMINAL, User-Specified Maximum Reheat Water Flow Rate [m3/s], 2.28617
 Component Sizing Information, Coil:Heating:Electric, CONFERENCE_2_Z8_REHEATCOIL, User-Specified Nominal Capacity [W], 685.84983
 Component Sizing Information, AirTerminal:SingleDuct:VAV:Reheat, MECHANICAL_2_Z9_VAVTERMINAL, User-Specified Maximum Air Flow Rate [m3/s], 0.14915
 Component Sizing Information, AirTerminal:SingleDuct:VAV:Reheat, MECHANICAL_2_Z9_VAVTERMINAL, Design Size Constant Minimum Air Flow Fraction, 0.20000
 Component Sizing Information, AirTerminal:SingleDuct:VAV:Reheat, MECHANICAL_2_Z9_VAVTERMINAL, User-Specified Constant Minimum Air Flow Fraction, 0.20000
 Component Sizing Information, AirTerminal:SingleDuct:VAV:Reheat, MECHANICAL_2_Z9_VAVTERMINAL, Design Size Minimum Air Flow Rate [m3/s], 2.98300E-002
 Component Sizing Information, AirTerminal:SingleDuct:VAV:Reheat, MECHANICAL_2_Z9_VAVTERMINAL, Design Size Maximum Flow per Zone Floor Area during Reheat [m3/s-m2], 1.00001E-003
 Component Sizing Information, AirTerminal:SingleDuct:VAV:Reheat, MECHANICAL_2_Z9_VAVTERMINAL, Design Size Maximum Flow Fraction during Reheat [], 0.20000
 Component Sizing Information, AirTerminal:SingleDuct:VAV:Reheat, MECHANICAL_2_Z9_VAVTERMINAL, User-Specified Maximum Reheat Water Flow Rate [m3/s], 2.38640
 Component Sizing Information, Coil:Heating:Electric, MECHANICAL_2_Z9_REHEATCOIL, User-Specified Nominal Capacity [W], 715.92068
 Component Sizing Information, AirTerminal:SingleDuct:VAV:Reheat, LOBBY_3_Z10_VAVTERMINAL, User-Specified Maximum Air Flow Rate [m3/s], 0.23321
 Component Sizing Information, AirTerminal:SingleDuct:VAV:Reheat, LOBBY_3_Z10_VAVTERMINAL, Design Size Constant Minimum Air Flow Fraction, 0.20000
 Component Sizing Information, AirTerminal:SingleDuct:VAV:Reheat, LOBBY_3_Z10_VAVTERMINAL, User-Specified Constant Minimum Air Flow Fraction, 0.20000
 Component Sizing Information, AirTerminal:SingleDuct:VAV:Reheat, LOBBY_3_Z10_VAVTERMINAL, Design Size Minimum Air Flow Rate [m3/s], 4.66413E-002
 Component Sizing Information, AirTerminal:SingleDuct:VAV:Reheat, LOBBY_3_Z10_VAVTERMINAL, Design Size Maximum Flow per Zone Floor Area during Reheat [m3/s-m2], 1.00000E-003
 Component Sizing Information, AirTerminal:SingleDuct:VAV:Reheat, LOBBY_3_Z10_VAVTERMINAL, Design Size Maximum Flow Fraction during Reheat [], 0.20000
 Component Sizing Information, AirTerminal:SingleDuct:VAV:Reheat, LOBBY_3_Z10_VAVTERMINAL, User-Specified Maximum Reheat Water Flow Rate [m3/s], 3.73130
 Component Sizing Information, Coil:Heating:Electric, LOBBY_3_Z10_REHEATCOIL, User-Specified Nominal Capacity [W], 1119.39115
 Component Sizing Information, AirTerminal:SingleDuct:VAV:Reheat, CONFERENCE_3_Z11_VAVTERMINAL, User-Specified Maximum Air Flow Rate [m3/s], 0.17594
 Component Sizing Information, AirTerminal:SingleDuct:VAV:Reheat, CONFERENCE_3_Z11_VAVTERMINAL, Design Size Constant Minimum Air Flow Fraction, 0.20000
 Component Sizing Information, AirTerminal:SingleDuct:VAV:Reheat, CONFERENCE_3_Z11_VAVTERMINAL, User-Specified Constant Minimum Air Flow Fraction, 0.20000
 Component Sizing Information, AirTerminal:SingleDuct:VAV:Reheat, CONFERENCE_3_Z11_VAVTERMINAL, Design Size Minimum Air Flow Rate [m3/s], 3.51878E-002
 Component Sizing Information, AirTerminal:SingleDuct:VAV:Reheat, CONFERENCE_3_Z11_VAVTERMINAL, Design Size Maximum Flow per Zone Floor Area during Reheat [m3/s-m2], 9.99978E-004
 Component Sizing Information, AirTerminal:SingleDuct:VAV:Reheat, CONFERENCE_3_Z11_VAVTERMINAL, Design Size Maximum Flow Fraction during Reheat [], 0.20000
 Component Sizing Information, AirTerminal:SingleDuct:VAV:Reheat, CONFERENCE_3_Z11_VAVTERMINAL, User-Specified Maximum Reheat Water Flow Rate [m3/s], 2.81502
 Component Sizing Information, Coil:Heating:Electric, CONFERENCE_3_Z11_REHEATCOIL, User-Specified Nominal Capacity [W], 844.50674
 Component Sizing Information, AirTerminal:SingleDuct:VAV:Reheat, BREAK_ROOM_3_Z12_VAVTERMINAL, User-Specified Maximum Air Flow Rate [m3/s], 0.14579
 Component Sizing Information, AirTerminal:SingleDuct:VAV:Reheat, BREAK_ROOM_3_Z12_VAVTERMINAL, Design Size Constant Minimum Air Flow Fraction, 0.20000
 Component Sizing Information, AirTerminal:SingleDuct:VAV:Reheat, BREAK_ROOM_3_Z12_VAVTERMINAL, User-Specified Constant Minimum Air Flow Fraction, 0.20000
 Component Sizing Information, AirTerminal:SingleDuct:VAV:Reheat, BREAK_ROOM_3_Z12_VAVTERMINAL, Design Size Minimum Air Flow Rate [m3/s], 2.91571E-002
 Component Sizing Information, AirTerminal:SingleDuct:VAV:Reheat, BREAK_ROOM_3_Z12_VAVTERMINAL, Design Size Maximum Flow per Zone Floor Area during Reheat [m3/s-m2], 1.00001E-003
 Component Sizing Information, AirTerminal:SingleDuct:VAV:Reheat, BREAK_ROOM_3_Z12_VAVTERMINAL, Design Size Maximum Flow Fraction during Reheat [], 0.20000
 Component Sizing Information, AirTerminal:SingleDuct:VAV:Reheat, BREAK_ROOM_3_Z12_VAVTERMINAL, User-Specified Maximum Reheat Water Flow Rate [m3/s], 2.33257
 Component Sizing Information, Coil:Heating:Electric, BREAK_ROOM_3_Z12_REHEATCOIL, User-Specified Nominal Capacity [W], 699.77027
 Component Sizing Information, AirTerminal:SingleDuct:VAV:Reheat, MECHANICAL_3_Z13_VAVTERMINAL, User-Specified Maximum Air Flow Rate [m3/s], 0.13934
 Component Sizing Information, AirTerminal:SingleDuct:VAV:Reheat, MECHANICAL_3_Z13_VAVTERMINAL, Design Size Constant Minimum Air Flow Fraction, 0.20000
 Component Sizing Information, AirTerminal:SingleDuct:VAV:Reheat, MECHANICAL_3_Z13_VAVTERMINAL, User-Specified Constant Minimum Air Flow Fraction, 0.20000
 Component Sizing Information, AirTerminal:SingleDuct:VAV:Reheat, MECHANICAL_3_Z13_VAVTERMINAL, Design Size Minimum Air Flow Rate [m3/s], 2.78688E-002
 Component Sizing Information, AirTerminal:SingleDuct:VAV:Reheat, MECHANICAL_3_Z13_VAVTERMINAL, Design Size Maximum Flow per Zone Floor Area during Reheat [m3/s-m2], 1.00001E-003
 Component Sizing Information, AirTerminal:SingleDuct:VAV:Reheat, MECHANICAL_3_Z13_VAVTERMINAL, Design Size Maximum Flow Fraction during Reheat [], 0.20000
 Component Sizing Information, AirTerminal:SingleDuct:VAV:Reheat, MECHANICAL_3_Z13_VAVTERMINAL, User-Specified Maximum Reheat Water Flow Rate [m3/s], 2.22950
 Component Sizing Information, Coil:Heating:Electric, MECHANICAL_3_Z13_REHEATCOIL, User-Specified Nominal Capacity [W], 668.85018
 Component Sizing Information, AirTerminal:SingleDuct:VAV:Reheat, LOBBY_4_Z14_VAVTERMINAL, User-Specified Maximum Air Flow Rate [m3/s], 0.18073
 Component Sizing Information, AirTerminal:SingleDuct:VAV:Reheat, LOBBY_4_Z14_VAVTERMINAL, Design Size Constant Minimum Air Flow Fraction, 0.20000
 Component Sizing Information, AirTerminal:SingleDuct:VAV:Reheat, LOBBY_4_Z14_VAVTERMINAL, User-Specified Constant Minimum Air Flow Fraction, 0.20000
 Component Sizing Information, AirTerminal:SingleDuct:VAV:Reheat, LOBBY_4_Z14_VAVTERMINAL, Design Size Minimum Air Flow Rate [m3/s], 3.61466E-002
 Component Sizing Information, AirTerminal:SingleDuct:VAV:Reheat, LOBBY_4_Z14_VAVTERMINAL, Design Size Maximum Flow per Zone Floor Area during Reheat [m3/s-m2], 1.00001E-003
 Component Sizing Information, AirTerminal:SingleDuct:VAV:Reheat, LOBBY_4_Z14_VAVTERMINAL, Design Size Maximum Flow Fraction during Reheat [], 0.20000
 Component Sizing Information, AirTerminal:SingleDuct:VAV:Reheat, LOBBY_4_Z14_VAVTERMINAL, User-Specified Maximum Reheat Water Flow Rate [m3/s], 2.89172
 Component Sizing Information, Coil:Heating:Electric, LOBBY_4_Z14_REHEATCOIL, User-Specified Nominal Capacity [W], 867.51729
 Component Sizing Information, AirTerminal:SingleDuct:VAV:Reheat, BREAK_ROOM_4_Z15_VAVTERMINAL, User-Specified Maximum Air Flow Rate [m3/s], 0.11209
 Component Sizing Information, AirTerminal:SingleDuct:VAV:Reheat, BREAK_ROOM_4_Z15_VAVTERMINAL, Design Size Constant Minimum Air Flow Fraction, 0.20000
 Component Sizing Information, AirTerminal:SingleDuct:VAV:Reheat, BREAK_ROOM_4_Z15_VAVTERMINAL, User-Specified Constant Minimum Air Flow Fraction, 0.20000
 Component Sizing Information, AirTerminal:SingleDuct:VAV:Reheat, BREAK_ROOM_4_Z15_VAVTERMINAL, Design Size Minimum Air Flow Rate [m3/s], 2.24188E-002
 Component Sizing Information, AirTerminal:SingleDuct:VAV:Reheat, BREAK_ROOM_4_Z15_VAVTERMINAL, Design Size Maximum Flow per Zone Floor Area during Reheat [m3/s-m2], 1.00000E-003
 Component Sizing Information, AirTerminal:SingleDuct:VAV:Reheat, BREAK_ROOM_4_Z15_VAVTERMINAL, Design Size Maximum Flow Fraction during Reheat [], 0.20000
 Component Sizing Information, AirTerminal:SingleDuct:VAV:Reheat, BREAK_ROOM_4_Z15_VAVTERMINAL, User-Specified Maximum Reheat Water Flow Rate [m3/s], 1.79351
 Component Sizing Information, Coil:Heating:Electric, BREAK_ROOM_4_Z15_REHEATCOIL, User-Specified Nominal Capacity [W], 538.05196
 Component Sizing Information, Coil:Cooling:DX:SingleSpeed, LOBBY_0_Z1_COOLINGCOILDX, User-Specified Rated Air Flow Rate [m3/s], 0.23321
 Component Sizing Information, Coil:Cooling:DX:SingleSpeed, LOBBY_0_Z1_COOLINGCOILDX, User-Specified Gross Rated Total Cooling Capacity [W], 4664.12980
 Component Sizing Information, Coil:Cooling:DX:SingleSpeed, LOBBY_0_Z1_COOLINGCOILDX, User-Specified Gross Rated Sensible Heat Ratio, 0.75000
! <DX Cooling Coil Standard Rating Information>, Component Type, Component Name, Standard Rating (Net) Cooling Capacity {W}, Standard Rating Net COP {W/W}, EER {Btu/W-h}, SEER User {Btu/W-h}, SEER Standard {Btu/W-h}, IEER {Btu/W-h}
 DX Cooling Coil Standard Rating Information, Coil:Cooling:DX:SingleSpeed, LOBBY_0_Z1_COOLINGCOILDX, 4483.0, 39.98, 136.43, 54.18, 51.26, 37.2
! <DX Cooling Coil AHRI 2023 Standard Rating Information>, Component Type, Component Name, Standard Rating (Net) Cooling Capacity {W}, Standard Rating Net COP2 {W/W}, EER2 {Btu/W-h}, SEER2 User {Btu/W-h}, SEER2 Standard {Btu/W-h}, IEER 2022 {Btu/W-h}
 DX Cooling Coil AHRI 2023 Standard Rating Information, Coil:Cooling:DX:SingleSpeed, LOBBY_0_Z1_COOLINGCOILDX, 4483.0, 39.98, 136.43, 54.18, 52.72, 37.2
 Component Sizing Information, Coil:Heating:Electric, LOBBY_0_Z1_HEATINGCOIL, User-Specified Nominal Capacity [W], 3731.30384
 Component Sizing Information, Fan:VariableVolume, LOBBY_0_Z1_SUPPLYFAN, User-Specified Maximum Flow Rate [m3/s], 0.23321
 Component Sizing Information, Fan:VariableVolume, LOBBY_0_Z1_SUPPLYFAN, Design Electric Power Consumption [W], 199.89128
 Component Sizing Information, Coil:Cooling:DX:SingleSpeed, CONFERENCE_0_Z2_COOLINGCOILDX, User-Specified Rated Air Flow Rate [m3/s], 0.11328
 Component Sizing Information, Coil:Cooling:DX:SingleSpeed, CONFERENCE_0_Z2_COOLINGCOILDX, User-Specified Gross Rated Total Cooling Capacity [W], 2265.50867
 Component Sizing Information, Coil:Cooling:DX:SingleSpeed, CONFERENCE_0_Z2_COOLINGCOILDX, User-Specified Gross Rated Sensible Heat Ratio, 0.75000
 DX Cooling Coil Standard Rating Information, Coil:Cooling:DX:SingleSpeed, CONFERENCE_0_Z2_COOLINGCOILDX, 2177.5, 39.98, 136.43, 54.18, 51.26, 37.2
 DX Cooling Coil AHRI 2023 Standard Rating Information, Coil:Cooling:DX:SingleSpeed, CONFERENCE_0_Z2_COOLINGCOILDX, 2177.5, 39.98, 136.43, 54.18, 52.72, 37.2
 Component Sizing Information, Coil:Heating:Electric, CONFERENCE_0_Z2_HEATINGCOIL, User-Specified Nominal Capacity [W], 1812.40693
 Component Sizing Information, Fan:VariableVolume, CONFERENCE_0_Z2_SUPPLYFAN, User-Specified Maximum Flow Rate [m3/s], 0.11328
 Component Sizing Information, Fan:VariableVolume, CONFERENCE_0_Z2_SUPPLYFAN, Design Electric Power Consumption [W], 97.09323
 Component Sizing Information, Coil:Cooling:DX:SingleSpeed, BREAK_ROOM_0_Z3_COOLINGCOILDX, User-Specified Rated Air Flow Rate [m3/s], 0.10393
 Component Sizing Information, Coil:Cooling:DX:SingleSpeed, BREAK_ROOM_0_Z3_COOLINGCOILDX, User-Specified Gross Rated Total Cooling Capacity [W], 2078.69761
 Component Sizing Information, Coil:Cooling:DX:SingleSpeed, BREAK_ROOM_0_Z3_COOLINGCOILDX, User-Specified Gross Rated Sensible Heat Ratio, 0.75000
 DX Cooling Coil Standard Rating Information, Coil:Cooling:DX:SingleSpeed, BREAK_ROOM_0_Z3_COOLINGCOILDX, 1998.0, 39.98, 136.43, 54.18, 51.26, 37.2
 DX Cooling Coil AHRI 2023 Standard Rating Information, Coil:Cooling:DX:SingleSpeed, BREAK_ROOM_0_Z3_COOLINGCOILDX, 1998.0, 39.98, 136.43, 54.18, 52.72, 37.2
 Component Sizing Information, Coil:Heating:Electric, BREAK_ROOM_0_Z3_HEATINGCOIL, User-Specified Nominal Capacity [W], 1662.95809
 Component Sizing Information, Fan:VariableVolume, BREAK_ROOM_0_Z3_SUPPLYFAN, User-Specified Maximum Flow Rate [m3/s], 0.10393
 Component Sizing Information, Fan:VariableVolume, BREAK_ROOM_0_Z3_SUPPLYFAN, Design Electric Power Consumption [W], 89.08704
 Component Sizing Information, Coil:Cooling:DX:SingleSpeed, MECHANICAL_0_Z4_COOLINGCOILDX, User-Specified Rated Air Flow Rate [m3/s], 9.54856E-002
 Component Sizing Information, Coil:Cooling:DX:SingleSpeed, MECHANICAL_0_Z4_COOLINGCOILDX, User-Specified Gross Rated Total Cooling Capacity [W], 1909.71133
 Component Sizing Information, Coil:Cooling:DX:SingleSpeed, MECHANICAL_0_Z4_COOLINGCOILDX, User-Specified Gross Rated Sensible Heat Ratio, 0.75000
 DX Cooling Coil Standard Rating Information, Coil:Cooling:DX:SingleSpeed, MECHANICAL_0_Z4_COOLINGCOILDX, 1835.6, 39.98, 136.43, 54.18, 51.26, 37.2
 DX Cooling Coil AHRI 2023 Standard Rating Information, Coil:Cooling:DX:SingleSpeed, MECHANICAL_0_Z4_COOLINGCOILDX, 1835.6, 39.98, 136.43, 54.18, 52.72, 37.2
 Component Sizing Information, Coil:Heating:Electric, MECHANICAL_0_Z4_HEATINGCOIL, User-Specified Nominal Capacity [W], 1527.76906
 Component Sizing Information, Fan:VariableVolume, MECHANICAL_0_Z4_SUPPLYFAN, User-Specified Maximum Flow Rate [m3/s], 9.54856E-002
 Component Sizing Information, Fan:VariableVolume, MECHANICAL_0_Z4_SUPPLYFAN, Design Electric Power Consumption [W], 81.84477
 Component Sizing Information, Coil:Cooling:DX:SingleSpeed, LOBBY_1_Z5_COOLINGCOILDX, User-Specified Rated Air Flow Rate [m3/s], 0.13337
 Component Sizing Information, Coil:Cooling:DX:SingleSpeed, LOBBY_1_Z5_COOLINGCOILDX, User-Specified Gross Rated Total Cooling Capacity [W], 2667.43072
 Component Sizing Information, Coil:Cooling:DX:SingleSpeed, LOBBY_1_Z5_COOLINGCOILDX, User-Specified Gross Rated Sensible Heat Ratio, 0.75000
 DX Cooling Coil Standard Rating Information, Coil:Cooling:DX:SingleSpeed, LOBBY_1_Z5_COOLINGCOILDX, 2563.9, 39.98, 136.43, 54.18, 51.26, 37.2
 DX Cooling Coil AHRI 2023 Standard Rating Information, Coil:Cooling:DX:SingleSpeed, LOBBY_1_Z5_COOLINGCOILDX, 2563.9, 39.98, 136.43, 54.18, 52.72, 37.2
 Component Sizing Information, Coil:Heating:Electric, LOBBY_1_Z5_HEATINGCOIL, User-Specified Nominal Capacity [W], 2133.94458
 Component Sizing Information, Fan:VariableVolume, LOBBY_1_Z5_SUPPLYFAN, User-Specified Maximum Flow Rate [m3/s], 0.13337
 Component Sizing Information, Fan:VariableVolume, LOBBY_1_Z5_SUPPLYFAN, Design Electric Power Consumption [W], 114.31846
 Component Sizing Information, Coil:Cooling:DX:SingleSpeed, CONFERENCE_1_Z6_COOLINGCOILDX, User-Specified Rated Air Flow Rate [m3/s], 0.19071
 Component Sizing Information, Coil:Cooling:DX:SingleSpeed, CONFERENCE_1_Z6_COOLINGCOILDX, User-Specified Gross Rated Total Cooling Capacity [W], 3814.10795
 Component Sizing Information, Coil:Cooling:DX:SingleSpeed, CONFERENCE_1_Z6_COOLINGCOILDX, User-Specified Gross Rated Sensible Heat Ratio, 0.75000
 DX Cooling Coil Standard Rating Information, Coil:Cooling:DX:SingleSpeed, CONFERENCE_1_Z6_COOLINGCOILDX, 3666.0, 39.98, 136.43, 54.18, 51.26, 37.2
 DX Cooling Coil AHRI 2023 Standard Rating Information, Coil:Cooling:DX:SingleSpeed, CONFERENCE_1_Z6_COOLINGCOILDX, 3666.0, 39.98, 136.43, 54.18, 52.72, 37.2
 Component Sizing Information, Coil:Heating:Electric, CONFERENCE_1_Z6_HEATINGCOIL, User-Specified Nominal Capacity [W], 3051.28636
 Component Sizing Information, Fan:VariableVolume, CONFERENCE_1_Z6_SUPPLYFAN, User-Specified Maximum Flow Rate [m3/s], 0.19071
 Component Sizing Information, Fan:VariableVolume, CONFERENCE_1_Z6_SUPPLYFAN, Design Electric Power Consumption [W], 163.46177
 Component Sizing Information, Coil:Cooling:DX:SingleSpeed, LOBBY_2_Z7_COOLINGCOILDX, User-Specified Rated Air Flow Rate [m3/s], 0.18786
 Component Sizing Information, Coil:Cooling:DX:SingleSpeed, LOBBY_2_Z7_COOLINGCOILDX, User-Specified Gross Rated Total Cooling Capacity [W], 3757.13283
 Component Sizing Information, Coil:Cooling:DX:SingleSpeed, LOBBY_2_Z7_COOLINGCOILDX, User-Specified Gross Rated Sensible Heat Ratio, 0.75000
 DX Cooling Coil Standard Rating Information, Coil:Cooling:DX:SingleSpeed, LOBBY_2_Z7_COOLINGCOILDX, 3611.3, 39.98, 136.43, 54.18, 51.26, 37.2
 DX Cooling Coil AHRI 2023 Standard Rating Information, Coil:Cooling:DX:SingleSpeed, LOBBY_2_Z7_COOLINGCOILDX, 3611.3, 39.98, 136.43, 54.18, 52.72, 37.2
 Component Sizing Information, Coil:Heating:Electric, LOBBY_2_Z7_HEATINGCOIL, User-Specified Nominal Capacity [W], 3005.70626
 Component Sizing Information, Fan:VariableVolume, LOBBY_2_Z7_SUPPLYFAN, User-Specified Maximum Flow Rate [m3/s], 0.18786
 Component Sizing Information, Fan:VariableVolume, LOBBY_2_Z7_SUPPLYFAN, Design Electric Power Consumption [W], 161.01998
 Component Sizing Information, Coil:Cooling:DX:SingleSpeed, CONFERENCE_2_Z8_COOLINGCOILDX, User-Specified Rated Air Flow Rate [m3/s], 0.14289
 Component Sizing Information, Coil:Cooling:DX:SingleSpeed, CONFERENCE_2_Z8_COOLINGCOILDX, User-Specified Gross Rated Total Cooling Capacity [W], 2857.70763
 Component Sizing Information, Coil:Cooling:DX:SingleSpeed, CONFERENCE_2_Z8_COOLINGCOILDX, User-Specified Gross Rated Sensible Heat Ratio, 0.75000
 DX Cooling Coil Standard Rating Information, Coil:Cooling:DX:SingleSpeed, CONFERENCE_2_Z8_COOLINGCOILDX, 2746.8, 39.98, 136.43, 54.18, 51.26, 37.2
 DX Cooling Coil AHRI 2023 Standard Rating Information, Coil:Cooling:DX:SingleSpeed, CONFERENCE_2_Z8_COOLINGCOILDX, 2746.8, 39.98, 136.43, 54.18, 52.72, 37.2
 Component Sizing Information, Coil:Heating:Electric, CONFERENCE_2_Z8_HEATINGCOIL, User-Specified Nominal Capacity [W], 2286.16610
 Component Sizing Information, Fan:VariableVolume, CONFERENCE_2_Z8_SUPPLYFAN, User-Specified Maximum Flow Rate [m3/s], 0.14289
 Component Sizing Information, Fan:VariableVolume, CONFERENCE_2_Z8_SUPPLYFAN, Design Electric Power Consumption [W], 122.47318
 Component Sizing Information, Coil:Cooling:DX:SingleSpeed, MECHANICAL_2_Z9_COOLINGCOILDX, User-Specified Rated Air Flow Rate [m3/s], 0.14915
 Component Sizing Information, Coil:Cooling:DX:SingleSpeed, MECHANICAL_2_Z9_COOLINGCOILDX, User-Specified Gross Rated Total Cooling Capacity [W], 2983.00282
 Component Sizing Information, Coil:Cooling:DX:SingleSpeed, MECHANICAL_2_Z9_COOLINGCOILDX, User-Specified Gross Rated Sensible Heat Ratio, 0.75000
 DX Cooling Coil Standard Rating Information, Coil:Cooling:DX:SingleSpeed, MECHANICAL_2_Z9_COOLINGCOILDX, 2867.2, 39.98, 136.43, 54.18, 51.26, 37.2
 DX Cooling Coil AHRI 2023 Standard Rating Information, Coil:Cooling:DX:SingleSpeed, MECHANICAL_2_Z9_COOLINGCOILDX, 2867.2, 39.98, 136.43, 54.18, 52.72, 37.2
 Component Sizing Information, Coil:Heating:Electric, MECHANICAL_2_Z9_HEATINGCOIL, User-Specified Nominal Capacity [W], 2386.40225
 Component Sizing Information, Fan:VariableVolume, MECHANICAL_2_Z9_SUPPLYFAN, User-Specified Maximum Flow Rate [m3/s], 0.14915
 Component Sizing Information, Fan:VariableVolume, MECHANICAL_2_Z9_SUPPLYFAN, Design Electric Power Consumption [W], 127.84298
 Component Sizing Information, Coil:Cooling:DX:SingleSpeed, LOBBY_3_Z10_COOLINGCOILDX, User-Specified Rated Air Flow Rate [m3/s], 0.23321
 Component Sizing Information, Coil:Cooling:DX:SingleSpeed, LOBBY_3_Z10_COOLINGCOILDX, User-Specified Gross Rated Total Cooling Capacity [W], 4664.12980
 Component Sizing Information, Coil:Cooling:DX:SingleSpeed, LOBBY_3_Z10_COOLINGCOILDX, User-Specified Gross Rated Sensible Heat Ratio, 0.75000
 DX Cooling Coil Standard Rating Information, Coil:Cooling:DX:SingleSpeed, LOBBY_3_Z10_COOLINGCOILDX, 4483.0, 39.98, 136.43, 54.18, 51.26, 37.2
 DX Cooling Coil AHRI 2023 Standard Rating Information, Coil:Cooling:DX:SingleSpeed, LOBBY_3_Z10_COOLINGCOILDX, 4483.0, 39.98, 136.43, 54.18, 52.72, 37.2
 Component Sizing Information, Coil:Heating:Electric, LOBBY_3_Z10_HEATINGCOIL, User-Specified Nominal Capacity [W], 3731.30384
 Component Sizing Information, Fan:VariableVolume, LOBBY_3_Z10_SUPPLYFAN, User-Specified Maximum Flow Rate [m3/s], 0.23321
 Component Sizing Information, Fan:VariableVolume, LOBBY_3_Z10_SUPPLYFAN, Design Electric Power Consumption [W], 199.89128
 Component Sizing Information, Coil:Cooling:DX:SingleSpeed, CONFERENCE_3_Z11_COOLINGCOILDX, User-Specified Rated Air Flow Rate [m3/s], 0.17594
 Component Sizing Information, Coil:Cooling:DX:SingleSpeed, CONFERENCE_3_Z11_COOLINGCOILDX, User-Specified Gross Rated Total Cooling Capacity [W], 3518.77809
 Component Sizing Information, Coil:Cooling:DX:SingleSpeed, CONFERENCE_3_Z11_COOLINGCOILDX, User-Specified Gross Rated Sensible Heat Ratio, 0.75000
 DX Cooling Coil Standard Rating Information, Coil:Cooling:DX:SingleSpeed, CONFERENCE_3_Z11_COOLINGCOILDX, 3382.2, 39.98, 136.43, 54.18, 51.26, 37.2
 DX Cooling Coil AHRI 2023 Standard Rating Information, Coil:Cooling:DX:SingleSpeed, CONFERENCE_3_Z11_COOLINGCOILDX, 3382.2, 39.98, 136.43, 54.18, 52.72, 37.2
 Component Sizing Information, Coil:Heating:Electric, CONFERENCE_3_Z11_HEATINGCOIL, User-Specified Nominal Capacity [W], 2815.02247
 Component Sizing Information, Fan:VariableVolume, CONFERENCE_3_Z11_SUPPLYFAN, User-Specified Maximum Flow Rate [m3/s], 0.17594
 Component Sizing Information, Fan:VariableVolume, CONFERENCE_3_Z11_SUPPLYFAN, Design Electric Power Consumption [W], 150.80478
 Component Sizing Information, Coil:Cooling:DX:SingleSpeed, BREAK_ROOM_3_Z12_COOLINGCOILDX, User-Specified Rated Air Flow Rate [m3/s], 0.14579
 Component Sizing Information, Coil:Cooling:DX:SingleSpeed, BREAK_ROOM_3_Z12_COOLINGCOILDX, User-Specified Gross Rated Total Cooling Capacity [W], 2915.70945
 Component Sizing Information, Coil:Cooling:DX:SingleSpeed, BREAK_ROOM_3_Z12_COOLINGCOILDX, User-Specified Gross Rated Sensible Heat Ratio, 0.75000
 DX Cooling Coil Standard Rating Information, Coil:Cooling:DX:SingleSpeed, BREAK_ROOM_3_Z12_COOLINGCOILDX, 2802.5, 39.98, 136.43, 54.18, 51.26, 37.2
 DX Cooling Coil AHRI 2023 Standard Rating Information, Coil:Cooling:DX:SingleSpeed, BREAK_ROOM_3_Z12_COOLINGCOILDX, 2802.5, 39.98, 136.43, 54.18, 52.72, 37.2
 Component Sizing Information, Coil:Heating:Electric, BREAK_ROOM_3_Z12_HEATINGCOIL, User-Specified Nominal Capacity [W], 2332.56756
 Component Sizing Information, Fan:VariableVolume, BREAK_ROOM_3_Z12_SUPPLYFAN, User-Specified Maximum Flow Rate [m3/s], 0.14579
 Component Sizing Information, Fan:VariableVolume, BREAK_ROOM_3_Z12_SUPPLYFAN, Design Electric Power Consumption [W], 124.95898
 Component Sizing Information, Coil:Cooling:DX:SingleSpeed, MECHANICAL_3_Z13_COOLINGCOILDX, User-Specified Rated Air Flow Rate [m3/s], 0.13934
 Component Sizing Information, Coil:Cooling:DX:SingleSpeed, MECHANICAL_3_Z13_COOLINGCOILDX, User-Specified Gross Rated Total Cooling Capacity [W], 2786.87577
 Component Sizing Information, Coil:Cooling:DX:SingleSpeed, MECHANICAL_3_Z13_COOLINGCOILDX, User-Specified Gross Rated Sensible Heat Ratio, 0.75000
 DX Cooling Coil Standard Rating Information, Coil:Cooling:DX:SingleSpeed, MECHANICAL_3_Z13_COOLINGCOILDX, 2678.7, 39.98, 136.43, 54.18, 51.26, 37.2
 DX Cooling Coil AHRI 2023 Standard Rating Information, Coil:Cooling:DX:SingleSpeed, MECHANICAL_3_Z13_COOLINGCOILDX, 2678.7, 39.98, 136.43, 54.18, 52.72, 37.2
 Component Sizing Information, Coil:Heating:Electric, MECHANICAL_3_Z13_HEATINGCOIL, User-Specified Nominal Capacity [W], 2229.50062
 Component Sizing Information, Fan:VariableVolume, MECHANICAL_3_Z13_SUPPLYFAN, User-Specified Maximum Flow Rate [m3/s], 0.13934
 Component Sizing Information, Fan:VariableVolume, MECHANICAL_3_Z13_SUPPLYFAN, Design Electric Power Consumption [W], 119.43753
 Component Sizing Information, Coil:Cooling:DX:SingleSpeed, LOBBY_4_Z14_COOLINGCOILDX, User-Specified Rated Air Flow Rate [m3/s], 0.18073
 Component Sizing Information, Coil:Cooling:DX:SingleSpeed, LOBBY_4_Z14_COOLINGCOILDX, User-Specified Gross Rated Total Cooling Capacity [W], 3614.65536
 Component Sizing Information, Coil:Cooling:DX:SingleSpeed, LOBBY_4_Z14_COOLINGCOILDX, User-Specified Gross Rated Sensible Heat Ratio, 0.75000
 DX Cooling Coil Standard Rating Information, Coil:Cooling:DX:SingleSpeed, LOBBY_4_Z14_COOLINGCOILDX, 3474.3, 39.98, 136.43, 54.18, 51.26, 37.2
 DX Cooling Coil AHRI 2023 Standard Rating Information, Coil:Cooling:DX:SingleSpeed, LOBBY_4_Z14_COOLINGCOILDX, 3474.3, 39.98, 136.43, 54.18, 52.72, 37.2
 Component Sizing Information, Coil:Heating:Electric, LOBBY_4_Z14_HEATINGCOIL, User-Specified Nominal Capacity [W], 2891.72429
 Component Sizing Information, Fan:VariableVolume, LOBBY_4_Z14_SUPPLYFAN, User-Specified Maximum Flow Rate [m3/s], 0.18073
 Component Sizing Information, Fan:VariableVolume, LOBBY_4_Z14_SUPPLYFAN, Design Electric Power Consumption [W], 154.91380
 Component Sizing Information, Coil:Cooling:DX:SingleSpeed, BREAK_ROOM_4_Z15_COOLINGCOILDX, User-Specified Rated Air Flow Rate [m3/s], 0.11209
 Component Sizing Information, Coil:Cooling:DX:SingleSpeed, BREAK_ROOM_4_Z15_COOLINGCOILDX, User-Specified Gross Rated Total Cooling Capacity [W], 2241.88317
 Component Sizing Information, Coil:Cooling:DX:SingleSpeed, BREAK_ROOM_4_Z15_COOLINGCOILDX, User-Specified Gross Rated Sensible Heat Ratio, 0.75000
 DX Cooling Coil Standard Rating Information, Coil:Cooling:DX:SingleSpeed, BREAK_ROOM_4_Z15_COOLINGCOILDX, 2154.8, 39.98, 136.43, 54.18, 51.26, 37.2
 DX Cooling Coil AHRI 2023 Standard Rating Information, Coil:Cooling:DX:SingleSpeed, BREAK_ROOM_4_Z15_COOLINGCOILDX, 2154.8, 39.98, 136.43, 54.18, 52.72, 37.2
 Component Sizing Information, Coil:Heating:Electric, BREAK_ROOM_4_Z15_HEATINGCOIL, User-Specified Nominal Capacity [W], 1793.50653
 Component Sizing Information, Fan:VariableVolume, BREAK_ROOM_4_Z15_SUPPLYFAN, User-Specified Maximum Flow Rate [m3/s], 0.11209
 Component Sizing Information, Fan:VariableVolume, BREAK_ROOM_4_Z15_SUPPLYFAN, Design Electric Power Consumption [W], 96.08071
! <Environment>,Environment Name,Environment Type, Start Date, End Date, Start DayOfWeek, Duration {#days}, Source:Start DayOfWeek,  Use Daylight Saving, Use Holidays, Apply Weekend Holiday Rule,  Use Rain Values, Use Snow Values, Sky Temperature Model
! <Environment:Special Days>, Special Day Name, Special Day Type, Source, Start Date, Duration {#days}
! <Environment:Daylight Saving>, Daylight Saving Indicator, Source, Start Date, End Date
! <Environment:WarmupDays>, NumberofWarmupDays
Environment,YEAR ROUND RUN PERIOD,WeatherFileRunPeriod,01/01/2017,12/31/2017,Sunday,365,Use RunPeriod Specified Day,Yes,Yes,Yes,Yes,Yes,Clark and Allen
Environment:Daylight Saving,No,
! <Sky Daylight Factors>, Sky Type, MonthAndDay, Daylighting Control Name, Enclosure Name, Window Name, Reference Point, Daylight Factor
 Sky Daylight Factors,Clear Sky,01/01,LOBBY_0_DAYLIGHT,LOBBY_0,LOBBY_0_WINDOW_1,LOBBY_0_REFERENCEPOINT1,1.3957E-002
 Sky Daylight Factors,Clear Turbid Sky,01/01,LOBBY_0_DAYLIGHT,LOBBY_0,LOBBY_0_WINDOW_1,LOBBY_0_REFERENCEPOINT1,1.5518E-002
 Sky Daylight Factors,Intermediate Sky,01/01,LOBBY_0_DAYLIGHT,LOBBY_0,LOBBY_0_WINDOW_1,LOBBY_0_REFERENCEPOINT1,9.8206E-003
 Sky Daylight Factors,Overcast Sky,01/01,LOBBY_0_DAYLIGHT,LOBBY_0,LOBBY_0_WINDOW_1,LOBBY_0_REFERENCEPOINT1,4.9804E-003
 Sky Daylight Factors,Clear Sky,01/01,LOBBY_0_DAYLIGHT,LOBBY_0,LOBBY_0_WINDOW_2,LOBBY_0_REFERENCEPOINT1,0.0000
 Sky Daylight Factors,Clear Turbid Sky,01/01,LOBBY_0_DAYLIGHT,LOBBY_0,LOBBY_0_WINDOW_2,LOBBY_0_REFERENCEPOINT1,0.0000
 Sky Daylight Factors,Intermediate Sky,01/01,LOBBY_0_DAYLIGHT,LOBBY_0,LOBBY_0_WINDOW_2,LOBBY_0_REFERENCEPOINT1,0.0000
 Sky Daylight Factors,Overcast Sky,01/01,LOBBY_0_DAYLIGHT,LOBBY_0,LOBBY_0_WINDOW_2,LOBBY_0_REFERENCEPOINT1,0.0000
 Sky Daylight Factors,Clear Sky,01/01,LOBBY_0_DAYLIGHT,LOBBY_0,LOBBY_0_WINDOW_3,LOBBY_0_REFERENCEPOINT1,5.8585E-003
 Sky Daylight Factors,Clear Turbid Sky,01/01,LOBBY_0_DAYLIGHT,LOBBY_0,LOBBY_0_WINDOW_3,LOBBY_0_REFERENCEPOINT1,4.4109E-003
 Sky Daylight Factors,Intermediate Sky,01/01,LOBBY_0_DAYLIGHT,LOBBY_0,LOBBY_0_WINDOW_3,LOBBY_0_REFERENCEPOINT1,3.0074E-003
 Sky Daylight Factors,Overcast Sky,01/01,LOBBY_0_DAYLIGHT,LOBBY_0,LOBBY_0_WINDOW_3,LOBBY_0_REFERENCEPOINT1,3.7303E-003
 Sky Daylight Factors,Clear Sky,01/01,LOBBY_0_DAYLIGHT,LOBBY_0,LOBBY_0_WINDOW_4,LOBBY_0_REFERENCEPOINT1,0.0000
 Sky Daylight Factors,Clear Turbid Sky,01/01,LOBBY_0_DAYLIGHT,LOBBY_0,LOBBY_0_WINDOW_4,LOBBY_0_REFERENCEPOINT1,0.0000
 Sky Daylight Factors,Intermediate Sky,01/01,LOBBY_0_DAYLIGHT,LOBBY_0,LOBBY_0_WINDOW_4,LOBBY_0_REFERENCEPOINT1,0.0000
 Sky Daylight Factors,Overcast Sky,01/01,LOBBY_0_DAYLIGHT,LOBBY_0,LOBBY_0_WINDOW_4,LOBBY_0_REFERENCEPOINT1,0.0000
 Sky Daylight Factors,Clear Sky,01/01,CONFERENCE_0_DAYLIGHT,CONFERENCE_0,CONFERENCE_0_WINDOW_1,CONFERENCE_0_REFERENCEPOINT1,0.0000
 Sky Daylight Factors,Clear Turbid Sky,01/01,CONFERENCE_0_DAYLIGHT,CONFERENCE_0,CONFERENCE_0_WINDOW_1,CONFERENCE_0_REFERENCEPOINT1,0.0000
 Sky Daylight Factors,Intermediate Sky,01/01,CONFERENCE_0_DAYLIGHT,CONFERENCE_0,CONFERENCE_0_WINDOW_1,CONFERENCE_0_REFERENCEPOINT1,0.0000
 Sky Daylight Factors,Overcast Sky,01/01,CONFERENCE_0_DAYLIGHT,CONFERENCE_0,CONFERENCE_0_WINDOW_1,CONFERENCE_0_REFERENCEPOINT1,0.0000
 Sky Daylight Factors,Clear Sky,01/01,CONFERENCE_0_DAYLIGHT,CONFERENCE_0,CONFERENCE_0_WINDOW_2,CONFERENCE_0_REFERENCEPOINT1,5.7105E-003
 Sky Daylight Factors,Clear Turbid Sky,01/01,CONFERENCE_0_DAYLIGHT,CONFERENCE_0,CONFERENCE_0_WINDOW_2,CONFERENCE_0_REFERENCEPOINT1,5.3422E-003
 Sky Daylight Factors,Intermediate Sky,01/01,CONFERENCE_0_DAYLIGHT,CONFERENCE_0,CONFERENCE_0_WINDOW_2,CONFERENCE_0_REFERENCEPOINT1,5.3815E-003
 Sky Daylight Factors,Overcast Sky,01/01,CONFERENCE_0_DAYLIGHT,CONFERENCE_0,CONFERENCE_0_WINDOW_2,CONFERENCE_0_REFERENCEPOINT1,4.6322E-003
 Sky Daylight Factors,Clear Sky,01/01,CONFERENCE_0_DAYLIGHT,CONFERENCE_0,CONFERENCE_0_WINDOW_3,CONFERENCE_0_REFERENCEPOINT1,8.4559E-003
 Sky Daylight Factors,Clear Turbid Sky,01/01,CONFERENCE_0_DAYLIGHT,CONFERENCE_0,CONFERENCE_0_WINDOW_3,CONFERENCE_0_REFERENCEPOINT1,6.8451E-003
 Sky Daylight Factors,Intermediate Sky,01/01,CONFERENCE_0_DAYLIGHT,CONFERENCE_0,CONFERENCE_0_WINDOW_3,CONFERENCE_0_REFERENCEPOINT1,6.1196E-003
 Sky Daylight Factors,Overcast Sky,01/01,CONFERENCE_0_DAYLIGHT,CONFERENCE_0,CONFERENCE_0_WINDOW_3,CONFERENCE_0_REFERENCEPOINT1,8.5363E-003
 Sky Daylight Factors,Clear Sky,01/01,CONFERENCE_0_DAYLIGHT,CONFERENCE_0,CONFERENCE_0_WINDOW_4,CONFERENCE_0_REFERENCEPOINT1,0.0000
 Sky Daylight Factors,Clear Turbid Sky,01/01,CONFERENCE_0_DAYLIGHT,CONFERENCE_0,CONFERENCE_0_WINDOW_4,CONFERENCE_0_REFERENCEPOINT1,0.0000
 Sky Daylight Factors,Intermediate Sky,01/01,CONFERENCE_0_DAYLIGHT,CONFERENCE_0,CONFERENCE_0_WINDOW_4,CONFERENCE_0_REFERENCEPOINT1,0.0000
 Sky Daylight Factors,Overcast Sky,01/01,CONFERENCE_0_DAYLIGHT,CONFERENCE_0,CONFERENCE_0_WINDOW_4,CONFERENCE_0_REFERENCEPOINT1,0.0000
 Sky Daylight Factors,Clear Sky,01/01,BREAK_ROOM_0_DAYLIGHT,BREAK_ROOM_0,BREAK_ROOM_0_WINDOW_1,BREAK_ROOM_0_REFERENCEPOINT1,0.0000
 Sky Daylight Factors,Clear Turbid Sky,01/01,BREAK_ROOM_0_DAYLIGHT,BREAK_ROOM_0,BREAK_ROOM_0_WINDOW_1,BREAK_ROOM_0_REFERENCEPOINT1,0.0000
 Sky Daylight Factors,Intermediate Sky,01/01,BREAK_ROOM_0_DAYLIGHT,BREAK_ROOM_0,BREAK_ROOM_0_WINDOW_1,BREAK_ROOM_0_REFERENCEPOINT1,0.0000
 Sky Daylight Factors,Overcast Sky,01/01,BREAK_ROOM_0_DAYLIGHT,BREAK_ROOM_0,BREAK_ROOM_0_WINDOW_1,BREAK_ROOM_0_REFERENCEPOINT1,0.0000
 Sky Daylight Factors,Clear Sky,01/01,BREAK_ROOM_0_DAYLIGHT,BREAK_ROOM_0,BREAK_ROOM_0_WINDOW_2,BREAK_ROOM_0_REFERENCEPOINT1,0.0000
 Sky Daylight Factors,Clear Turbid Sky,01/01,BREAK_ROOM_0_DAYLIGHT,BREAK_ROOM_0,BREAK_ROOM_0_WINDOW_2,BREAK_ROOM_0_REFERENCEPOINT1,0.0000
 Sky Daylight Factors,Intermediate Sky,01/01,BREAK_ROOM_0_DAYLIGHT,BREAK_ROOM_0,BREAK_ROOM_0_WINDOW_2,BREAK_ROOM_0_REFERENCEPOINT1,0.0000
 Sky Daylight Factors,Overcast Sky,01/01,BREAK_ROOM_0_DAYLIGHT,BREAK_ROOM_0,BREAK_ROOM_0_WINDOW_2,BREAK_ROOM_0_REFERENCEPOINT1,0.0000
 Sky Daylight Factors,Clear Sky,01/01,BREAK_ROOM_0_DAYLIGHT,BREAK_ROOM_0,BREAK_ROOM_0_WINDOW_3,BREAK_ROOM_0_REFERENCEPOINT1,0.0000
 Sky Daylight Factors,Clear Turbid Sky,01/01,BREAK_ROOM_0_DAYLIGHT,BREAK_ROOM_0,BREAK_ROOM_0_WINDOW_3,BREAK_ROOM_0_REFERENCEPOINT1,0.0000
 Sky Daylight Factors,Intermediate Sky,01/01,BREAK_ROOM_0_DAYLIGHT,BREAK_ROOM_0,BREAK_ROOM_0_WINDOW_3,BREAK_ROOM_0_REFERENCEPOINT1,0.0000
 Sky Daylight Factors,Overcast Sky,01/01,BREAK_ROOM_0_DAYLIGHT,BREAK_ROOM_0,BREAK_ROOM_0_WINDOW_3,BREAK_ROOM_0_REFERENCEPOINT1,0.0000
 Sky Daylight Factors,Clear Sky,01/01,BREAK_ROOM_0_DAYLIGHT,BREAK_ROOM_0,BREAK_ROOM_0_WINDOW_4,BREAK_ROOM_0_REFERENCEPOINT1,0.0000
 Sky Daylight Factors,Clear Turbid Sky,01/01,BREAK_ROOM_0_DAYLIGHT,BREAK_ROOM_0,BREAK_ROOM_0_WINDOW_4,BREAK_ROOM_0_REFERENCEPOINT1,0.0000
 Sky Daylight Factors,Intermediate Sky,01/01,BREAK_ROOM_0_DAYLIGHT,BREAK_ROOM_0,BREAK_ROOM_0_WINDOW_4,BREAK_ROOM_0_REFERENCEPOINT1,0.0000
 Sky Daylight Factors,Overcast Sky,01/01,BREAK_ROOM_0_DAYLIGHT,BREAK_ROOM_0,BREAK_ROOM_0_WINDOW_4,BREAK_ROOM_0_REFERENCEPOINT1,0.0000
 Sky Daylight Factors,Clear Sky,01/01,LOBBY_1_DAYLIGHT,LOBBY_1,LOBBY_1_WINDOW_1,LOBBY_1_REFERENCEPOINT1,0.0000
 Sky Daylight Factors,Clear Turbid Sky,01/01,LOBBY_1_DAYLIGHT,LOBBY_1,LOBBY_1_WINDOW_1,LOBBY_1_REFERENCEPOINT1,0.0000
 Sky Daylight Factors,Intermediate Sky,01/01,LOBBY_1_DAYLIGHT,LOBBY_1,LOBBY_1_WINDOW_1,LOBBY_1_REFERENCEPOINT1,0.0000
 Sky Daylight Factors,Overcast Sky,01/01,LOBBY_1_DAYLIGHT,LOBBY_1,LOBBY_1_WINDOW_1,LOBBY_1_REFERENCEPOINT1,0.0000
 Sky Daylight Factors,Clear Sky,01/01,LOBBY_1_DAYLIGHT,LOBBY_1,LOBBY_1_WINDOW_2,LOBBY_1_REFERENCEPOINT1,0.0000
 Sky Daylight Factors,Clear Turbid Sky,01/01,LOBBY_1_DAYLIGHT,LOBBY_1,LOBBY_1_WINDOW_2,LOBBY_1_REFERENCEPOINT1,0.0000
 Sky Daylight Factors,Intermediate Sky,01/01,LOBBY_1_DAYLIGHT,LOBBY_1,LOBBY_1_WINDOW_2,LOBBY_1_REFERENCEPOINT1,0.0000
 Sky Daylight Factors,Overcast Sky,01/01,LOBBY_1_DAYLIGHT,LOBBY_1,LOBBY_1_WINDOW_2,LOBBY_1_REFERENCEPOINT1,0.0000
 Sky Daylight Factors,Clear Sky,01/01,LOBBY_1_DAYLIGHT,LOBBY_1,LOBBY_1_WINDOW_3,LOBBY_1_REFERENCEPOINT1,8.8508E-003
 Sky Daylight Factors,Clear Turbid Sky,01/01,LOBBY_1_DAYLIGHT,LOBBY_1,LOBBY_1_WINDOW_3,LOBBY_1_REFERENCEPOINT1,7.2054E-003
 Sky Daylight Factors,Intermediate Sky,01/01,LOBBY_1_DAYLIGHT,LOBBY_1,LOBBY_1_WINDOW_3,LOBBY_1_REFERENCEPOINT1,6.4308E-003
 Sky Daylight Factors,Overcast Sky,01/01,LOBBY_1_DAYLIGHT,LOBBY_1,LOBBY_1_WINDOW_3,LOBBY_1_REFERENCEPOINT1,8.8564E-003
 Sky Daylight Factors,Clear Sky,01/01,LOBBY_1_DAYLIGHT,LOBBY_1,LOBBY_1_WINDOW_4,LOBBY_1_REFERENCEPOINT1,0.0000
 Sky Daylight Factors,Clear Turbid Sky,01/01,LOBBY_1_DAYLIGHT,LOBBY_1,LOBBY_1_WINDOW_4,LOBBY_1_REFERENCEPOINT1,0.0000
 Sky Daylight Factors,Intermediate Sky,01/01,LOBBY_1_DAYLIGHT,LOBBY_1,LOBBY_1_WINDOW_4,LOBBY_1_REFERENCEPOINT1,0.0000
 Sky Daylight Factors,Overcast Sky,01/01,LOBBY_1_DAYLIGHT,LOBBY_1,LOBBY_1_WINDOW_4,LOBBY_1_REFERENCEPOINT1,0.0000
 Sky Daylight Factors,Clear Sky,01/01,CONFERENCE_1_DAYLIGHT,CONFERENCE_1,CONFERENCE_1_WINDOW_1,CONFERENCE_1_REFERENCEPOINT1,1.3273E-002
 Sky Daylight Factors,Clear Turbid Sky,01/01,CONFERENCE_1_DAYLIGHT,CONFERENCE_1,CONFERENCE_1_WINDOW_1,CONFERENCE_1_REFERENCEPOINT1,1.4775E-002
 Sky Daylight Factors,Intermediate Sky,01/01,CONFERENCE_1_DAYLIGHT,CONFERENCE_1,CONFERENCE_1_WINDOW_1,CONFERENCE_1_REFERENCEPOINT1,9.4433E-003
 Sky Daylight Factors,Overcast Sky,01/01,CONFERENCE_1_DAYLIGHT,CONFERENCE_1,CONFERENCE_1_WINDOW_1,CONFERENCE_1_REFERENCEPOINT1,4.9437E-003
 Sky Daylight Factors,Clear Sky,01/01,CONFERENCE_1_DAYLIGHT,CONFERENCE_1,CONFERENCE_1_WINDOW_2,CONFERENCE_1_REFERENCEPOINT1,3.3051E-003
 Sky Daylight Factors,Clear Turbid Sky,01/01,CONFERENCE_1_DAYLIGHT,CONFERENCE_1,CONFERENCE_1_WINDOW_2,CONFERENCE_1_REFERENCEPOINT1,3.0746E-003
 Sky Daylight Factors,Intermediate Sky,01/01,CONFERENCE_1_DAYLIGHT,CONFERENCE_1,CONFERENCE_1_WINDOW_2,CONFERENCE_1_REFERENCEPOINT1,3.0289E-003
 Sky Daylight Factors,Overcast Sky,01/01,CONFERENCE_1_DAYLIGHT,CONFERENCE_1,CONFERENCE_1_WINDOW_2,CONFERENCE_1_REFERENCEPOINT1,2.4485E-003
 Sky Daylight Factors,Clear Sky,01/01,CONFERENCE_1_DAYLIGHT,CONFERENCE_1,CONFERENCE_1_WINDOW_3,CONFERENCE_1_REFERENCEPOINT1,0.0000
 Sky Daylight Factors,Clear Turbid Sky,01/01,CONFERENCE_1_DAYLIGHT,CONFERENCE_1,CONFERENCE_1_WINDOW_3,CONFERENCE_1_REFERENCEPOINT1,0.0000
 Sky Daylight Factors,Intermediate Sky,01/01,CONFERENCE_1_DAYLIGHT,CONFERENCE_1,CONFERENCE_1_WINDOW_3,CONFERENCE_1_REFERENCEPOINT1,0.0000
 Sky Daylight Factors,Overcast Sky,01/01,CONFERENCE_1_DAYLIGHT,CONFERENCE_1,CONFERENCE_1_WINDOW_3,CONFERENCE_1_REFERENCEPOINT1,0.0000
 Sky Daylight Factors,Clear Sky,01/01,CONFERENCE_1_DAYLIGHT,CONFERENCE_1,CONFERENCE_1_WINDOW_4,CONFERENCE_1_REFERENCEPOINT1,3.8170E-003
 Sky Daylight Factors,Clear Turbid Sky,01/01,CONFERENCE_1_DAYLIGHT,CONFERENCE_1,CONFERENCE_1_WINDOW_4,CONFERENCE_1_REFERENCEPOINT1,3.5833E-003
 Sky Daylight Factors,Intermediate Sky,01/01,CONFERENCE_1_DAYLIGHT,CONFERENCE_1,CONFERENCE_1_WINDOW_4,CONFERENCE_1_REFERENCEPOINT1,3.5982E-003
 Sky Daylight Factors,Overcast Sky,01/01,CONFERENCE_1_DAYLIGHT,CONFERENCE_1,CONFERENCE_1_WINDOW_4,CONFERENCE_1_REFERENCEPOINT1,3.0959E-003
 Sky Daylight Factors,Clear Sky,01/01,LOBBY_2_DAYLIGHT,LOBBY_2,LOBBY_2_WINDOW_1,LOBBY_2_REFERENCEPOINT1,0.0000
 Sky Daylight Factors,Clear Turbid Sky,01/01,LOBBY_2_DAYLIGHT,LOBBY_2,LOBBY_2_WINDOW_1,LOBBY_2_REFERENCEPOINT1,0.0000
 Sky Daylight Factors,Intermediate Sky,01/01,LOBBY_2_DAYLIGHT,LOBBY_2,LOBBY_2_WINDOW_1,LOBBY_2_REFERENCEPOINT1,0.0000
 Sky Daylight Factors,Overcast Sky,01/01,LOBBY_2_DAYLIGHT,LOBBY_2,LOBBY_2_WINDOW_1,LOBBY_2_REFERENCEPOINT1,0.0000
 Sky Daylight Factors,Clear Sky,01/01,LOBBY_2_DAYLIGHT,LOBBY_2,LOBBY_2_WINDOW_2,LOBBY_2_REFERENCEPOINT1,3.0632E-003
 Sky Daylight Factors,Clear Turbid Sky,01/01,LOBBY_2_DAYLIGHT,LOBBY_2,LOBBY_2_WINDOW_2,LOBBY_2_REFERENCEPOINT1,2.8479E-003
 Sky Daylight Factors,Intermediate Sky,01/01,LOBBY_2_DAYLIGHT,LOBBY_2,LOBBY_2_WINDOW_2,LOBBY_2_REFERENCEPOINT1,2.5945E-003
 Sky Daylight Factors,Overcast Sky,01/01,LOBBY_2_DAYLIGHT,LOBBY_2,LOBBY_2_WINDOW_2,LOBBY_2_REFERENCEPOINT1,2.0631E-003
 Sky Daylight Factors,Clear Sky,01/01,LOBBY_2_DAYLIGHT,LOBBY_2,LOBBY_2_WINDOW_3,LOBBY_2_REFERENCEPOINT1,0.0000
 Sky Daylight Factors,Clear Turbid Sky,01/01,LOBBY_2_DAYLIGHT,LOBBY_2,LOBBY_2_WINDOW_3,LOBBY_2_REFERENCEPOINT1,0.0000
 Sky Daylight Factors,Intermediate Sky,01/01,LOBBY_2_DAYLIGHT,LOBBY_2,LOBBY_2_WINDOW_3,LOBBY_2_REFERENCEPOINT1,0.0000
 Sky Daylight Factors,Overcast Sky,01/01,LOBBY_2_DAYLIGHT,LOBBY_2,LOBBY_2_WINDOW_3,LOBBY_2_REFERENCEPOINT1,0.0000
 Sky Daylight Factors,Clear Sky,01/01,LOBBY_2_DAYLIGHT,LOBBY_2,LOBBY_2_WINDOW_4,LOBBY_2_REFERENCEPOINT1,3.7980E-003
 Sky Daylight Factors,Clear Turbid Sky,01/01,LOBBY_2_DAYLIGHT,LOBBY_2,LOBBY_2_WINDOW_4,LOBBY_2_REFERENCEPOINT1,3.5615E-003
 Sky Daylight Factors,Intermediate Sky,01/01,LOBBY_2_DAYLIGHT,LOBBY_2,LOBBY_2_WINDOW_4,LOBBY_2_REFERENCEPOINT1,3.5621E-003
 Sky Daylight Factors,Overcast Sky,01/01,LOBBY_2_DAYLIGHT,LOBBY_2,LOBBY_2_WINDOW_4,LOBBY_2_REFERENCEPOINT1,3.0331E-003
 Sky Daylight Factors,Clear Sky,01/01,CONFERENCE_2_DAYLIGHT,CONFERENCE_2,CONFERENCE_2_WINDOW_1,CONFERENCE_2_REFERENCEPOINT1,0.0000
 Sky Daylight Factors,Clear Turbid Sky,01/01,CONFERENCE_2_DAYLIGHT,CONFERENCE_2,CONFERENCE_2_WINDOW_1,CONFERENCE_2_REFERENCEPOINT1,0.0000
 Sky Daylight Factors,Intermediate Sky,01/01,CONFERENCE_2_DAYLIGHT,CONFERENCE_2,CONFERENCE_2_WINDOW_1,CONFERENCE_2_REFERENCEPOINT1,0.0000
 Sky Daylight Factors,Overcast Sky,01/01,CONFERENCE_2_DAYLIGHT,CONFERENCE_2,CONFERENCE_2_WINDOW_1,CONFERENCE_2_REFERENCEPOINT1,0.0000
 Sky Daylight Factors,Clear Sky,01/01,CONFERENCE_2_DAYLIGHT,CONFERENCE_2,CONFERENCE_2_WINDOW_2,CONFERENCE_2_REFERENCEPOINT1,0.0000
 Sky Daylight Factors,Clear Turbid Sky,01/01,CONFERENCE_2_DAYLIGHT,CONFERENCE_2,CONFERENCE_2_WINDOW_2,CONFERENCE_2_REFERENCEPOINT1,0.0000
 Sky Daylight Factors,Intermediate Sky,01/01,CONFERENCE_2_DAYLIGHT,CONFERENCE_2,CONFERENCE_2_WINDOW_2,CONFERENCE_2_REFERENCEPOINT1,0.0000
 Sky Daylight Factors,Overcast Sky,01/01,CONFERENCE_2_DAYLIGHT,CONFERENCE_2,CONFERENCE_2_WINDOW_2,CONFERENCE_2_REFERENCEPOINT1,0.0000
 Sky Daylight Factors,Clear Sky,01/01,CONFERENCE_2_DAYLIGHT,CONFERENCE_2,CONFERENCE_2_WINDOW_3,CONFERENCE_2_REFERENCEPOINT1,9.0372E-003
 Sky Daylight Factors,Clear Turbid Sky,01/01,CONFERENCE_2_DAYLIGHT,CONFERENCE_2,CONFERENCE_2_WINDOW_3,CONFERENCE_2_REFERENCEPOINT1,7.3599E-003
 Sky Daylight Factors,Intermediate Sky,01/01,CONFERENCE_2_DAYLIGHT,CONFERENCE_2,CONFERENCE_2_WINDOW_3,CONFERENCE_2_REFERENCEPOINT1,6.6043E-003
 Sky Daylight Factors,Overcast Sky,01/01,CONFERENCE_2_DAYLIGHT,CONFERENCE_2,CONFERENCE_2_WINDOW_3,CONFERENCE_2_REFERENCEPOINT1,9.1209E-003
 Sky Daylight Factors,Clear Sky,01/01,CONFERENCE_2_DAYLIGHT,CONFERENCE_2,CONFERENCE_2_WINDOW_4,CONFERENCE_2_REFERENCEPOINT1,0.0000
 Sky Daylight Factors,Clear Turbid Sky,01/01,CONFERENCE_2_DAYLIGHT,CONFERENCE_2,CONFERENCE_2_WINDOW_4,CONFERENCE_2_REFERENCEPOINT1,0.0000
 Sky Daylight Factors,Intermediate Sky,01/01,CONFERENCE_2_DAYLIGHT,CONFERENCE_2,CONFERENCE_2_WINDOW_4,CONFERENCE_2_REFERENCEPOINT1,0.0000
 Sky Daylight Factors,Overcast Sky,01/01,CONFERENCE_2_DAYLIGHT,CONFERENCE_2,CONFERENCE_2_WINDOW_4,CONFERENCE_2_REFERENCEPOINT1,0.0000
 Sky Daylight Factors,Clear Sky,01/01,LOBBY_3_DAYLIGHT,LOBBY_3,LOBBY_3_WINDOW_1,LOBBY_3_REFERENCEPOINT1,0.0000
 Sky Daylight Factors,Clear Turbid Sky,01/01,LOBBY_3_DAYLIGHT,LOBBY_3,LOBBY_3_WINDOW_1,LOBBY_3_REFERENCEPOINT1,0.0000
 Sky Daylight Factors,Intermediate Sky,01/01,LOBBY_3_DAYLIGHT,LOBBY_3,LOBBY_3_WINDOW_1,LOBBY_3_REFERENCEPOINT1,0.0000
 Sky Daylight Factors,Overcast Sky,01/01,LOBBY_3_DAYLIGHT,LOBBY_3,LOBBY_3_WINDOW_1,LOBBY_3_REFERENCEPOINT1,0.0000
 Sky Daylight Factors,Clear Sky,01/01,LOBBY_3_DAYLIGHT,LOBBY_3,LOBBY_3_WINDOW_2,LOBBY_3_REFERENCEPOINT1,0.0000
 Sky Daylight Factors,Clear Turbid Sky,01/01,LOBBY_3_DAYLIGHT,LOBBY_3,LOBBY_3_WINDOW_2,LOBBY_3_REFERENCEPOINT1,0.0000
 Sky Daylight Factors,Intermediate Sky,01/01,LOBBY_3_DAYLIGHT,LOBBY_3,LOBBY_3_WINDOW_2,LOBBY_3_REFERENCEPOINT1,0.0000
 Sky Daylight Factors,Overcast Sky,01/01,LOBBY_3_DAYLIGHT,LOBBY_3,LOBBY_3_WINDOW_2,LOBBY_3_REFERENCEPOINT1,0.0000
 Sky Daylight Factors,Clear Sky,01/01,LOBBY_3_DAYLIGHT,LOBBY_3,LOBBY_3_WINDOW_3,LOBBY_3_REFERENCEPOINT1,0.0000
 Sky Daylight Factors,Clear Turbid Sky,01/01,LOBBY_3_DAYLIGHT,LOBBY_3,LOBBY_3_WINDOW_3,LOBBY_3_REFERENCEPOINT1,0.0000
 Sky Daylight Factors,Intermediate Sky,01/01,LOBBY_3_DAYLIGHT,LOBBY_3,LOBBY_3_WINDOW_3,LOBBY_3_REFERENCEPOINT1,0.0000
 Sky Daylight Factors,Overcast Sky,01/01,LOBBY_3_DAYLIGHT,LOBBY_3,LOBBY_3_WINDOW_3,LOBBY_3_REFERENCEPOINT1,0.0000
 Sky Daylight Factors,Clear Sky,01/01,LOBBY_3_DAYLIGHT,LOBBY_3,LOBBY_3_WINDOW_4,LOBBY_3_REFERENCEPOINT1,3.2174E-003
 Sky Daylight Factors,Clear Turbid Sky,01/01,LOBBY_3_DAYLIGHT,LOBBY_3,LOBBY_3_WINDOW_4,LOBBY_3_REFERENCEPOINT1,3.0203E-003
 Sky Daylight Factors,Intermediate Sky,01/01,LOBBY_3_DAYLIGHT,LOBBY_3,LOBBY_3_WINDOW_4,LOBBY_3_REFERENCEPOINT1,3.0329E-003
 Sky Daylight Factors,Overcast Sky,01/01,LOBBY_3_DAYLIGHT,LOBBY_3,LOBBY_3_WINDOW_4,LOBBY_3_REFERENCEPOINT1,2.6095E-003
 Sky Daylight Factors,Clear Sky,01/01,CONFERENCE_3_DAYLIGHT,CONFERENCE_3,CONFERENCE_3_WINDOW_1,CONFERENCE_3_REFERENCEPOINT1,1.3089E-002
 Sky Daylight Factors,Clear Turbid Sky,01/01,CONFERENCE_3_DAYLIGHT,CONFERENCE_3,CONFERENCE_3_WINDOW_1,CONFERENCE_3_REFERENCEPOINT1,1.4569E-002
 Sky Daylight Factors,Intermediate Sky,01/01,CONFERENCE_3_DAYLIGHT,CONFERENCE_3,CONFERENCE_3_WINDOW_1,CONFERENCE_3_REFERENCEPOINT1,9.3123E-003
 Sky Daylight Factors,Overcast Sky,01/01,CONFERENCE_3_DAYLIGHT,CONFERENCE_3,CONFERENCE_3_WINDOW_1,CONFERENCE_3_REFERENCEPOINT1,4.8755E-003
 Sky Daylight Factors,Clear Sky,01/01,CONFERENCE_3_DAYLIGHT,CONFERENCE_3,CONFERENCE_3_WINDOW_2,CONFERENCE_3_REFERENCEPOINT1,4.0591E-003
 Sky Daylight Factors,Clear Turbid Sky,01/01,CONFERENCE_3_DAYLIGHT,CONFERENCE_3,CONFERENCE_3_WINDOW_2,CONFERENCE_3_REFERENCEPOINT1,3.8034E-003
 Sky Daylight Factors,Intermediate Sky,01/01,CONFERENCE_3_DAYLIGHT,CONFERENCE_3,CONFERENCE_3_WINDOW_2,CONFERENCE_3_REFERENCEPOINT1,3.8306E-003
 Sky Daylight Factors,Overcast Sky,01/01,CONFERENCE_3_DAYLIGHT,CONFERENCE_3,CONFERENCE_3_WINDOW_2,CONFERENCE_3_REFERENCEPOINT1,3.3104E-003
 Sky Daylight Factors,Clear Sky,01/01,CONFERENCE_3_DAYLIGHT,CONFERENCE_3,CONFERENCE_3_WINDOW_3,CONFERENCE_3_REFERENCEPOINT1,0.0000
 Sky Daylight Factors,Clear Turbid Sky,01/01,CONFERENCE_3_DAYLIGHT,CONFERENCE_3,CONFERENCE_3_WINDOW_3,CONFERENCE_3_REFERENCEPOINT1,0.0000
 Sky Daylight Factors,Intermediate Sky,01/01,CONFERENCE_3_DAYLIGHT,CONFERENCE_3,CONFERENCE_3_WINDOW_3,CONFERENCE_3_REFERENCEPOINT1,0.0000
 Sky Daylight Factors,Overcast Sky,01/01,CONFERENCE_3_DAYLIGHT,CONFERENCE_3,CONFERENCE_3_WINDOW_3,CONFERENCE_3_REFERENCEPOINT1,0.0000
 Sky Daylight Factors,Clear Sky,01/01,CONFERENCE_3_DAYLIGHT,CONFERENCE_3,CONFERENCE_3_WINDOW_4,CONFERENCE_3_REFERENCEPOINT1,0.0000
 Sky Daylight Factors,Clear Turbid Sky,01/01,CONFERENCE_3_DAYLIGHT,CONFERENCE_3,CONFERENCE_3_WINDOW_4,CONFERENCE_3_REFERENCEPOINT1,0.0000
 Sky Daylight Factors,Intermediate Sky,01/01,CONFERENCE_3_DAYLIGHT,CONFERENCE_3,CONFERENCE_3_WINDOW_4,CONFERENCE_3_REFERENCEPOINT1,0.0000
 Sky Daylight Factors,Overcast Sky,01/01,CONFERENCE_3_DAYLIGHT,CONFERENCE_3,CONFERENCE_3_WINDOW_4,CONFERENCE_3_REFERENCEPOINT1,0.0000
 Sky Daylight Factors,Clear Sky,01/01,BREAK_ROOM_3_DAYLIGHT,BREAK_ROOM_3,BREAK_ROOM_3_WINDOW_1,BREAK_ROOM_3_REFERENCEPOINT1,0.0000
 Sky Daylight Factors,Clear Turbid Sky,01/01,BREAK_ROOM_3_DAYLIGHT,BREAK_ROOM_3,BREAK_ROOM_3_WINDOW_1,BREAK_ROOM_3_REFERENCEPOINT1,0.0000
 Sky Daylight Factors,Intermediate Sky,01/01,BREAK_ROOM_3_DAYLIGHT,BREAK_ROOM_3,BREAK_ROOM_3_WINDOW_1,BREAK_ROOM_3_REFERENCEPOINT1,0.0000
 Sky Daylight Factors,Overcast Sky,01/01,BREAK_ROOM_3_DAYLIGHT,BREAK_ROOM_3,BREAK_ROOM_3_WINDOW_1,BREAK_ROOM_3_REFERENCEPOINT1,0.0000
 Sky Daylight Factors,Clear Sky,01/01,BREAK_ROOM_3_DAYLIGHT,BREAK_ROOM_3,BREAK_ROOM_3_WINDOW_2,BREAK_ROOM_3_REFERENCEPOINT1,0.0000
 Sky Daylight Factors,Clear Turbid Sky,01/01,BREAK_ROOM_3_DAYLIGHT,BREAK_ROOM_3,BREAK_ROOM_3_WINDOW_2,BREAK_ROOM_3_REFERENCEPOINT1,0.0000
 Sky Daylight Factors,Intermediate Sky,01/01,BREAK_ROOM_3_DAYLIGHT,BREAK_ROOM_3,BREAK_ROOM_3_WINDOW_2,BREAK_ROOM_3_REFERENCEPOINT1,0.0000
 Sky Daylight Factors,Overcast Sky,01/01,BREAK_ROOM_3_DAYLIGHT,BREAK_ROOM_3,BREAK_ROOM_3_WINDOW_2,BREAK_ROOM_3_REFERENCEPOINT1,0.0000
 Sky Daylight Factors,Clear Sky,01/01,BREAK_ROOM_3_DAYLIGHT,BREAK_ROOM_3,BREAK_ROOM_3_WINDOW_3,BREAK_ROOM_3_REFERENCEPOINT1,0.0000
 Sky Daylight Factors,Clear Turbid Sky,01/01,BREAK_ROOM_3_DAYLIGHT,BREAK_ROOM_3,BREAK_ROOM_3_WINDOW_3,BREAK_ROOM_3_REFERENCEPOINT1,0.0000
 Sky Daylight Factors,Intermediate Sky,01/01,BREAK_ROOM_3_DAYLIGHT,BREAK_ROOM_3,BREAK_ROOM_3_WINDOW_3,BREAK_ROOM_3_REFERENCEPOINT1,0.0000
 Sky Daylight Factors,Overcast Sky,01/01,BREAK_ROOM_3_DAYLIGHT,BREAK_ROOM_3,BREAK_ROOM_3_WINDOW_3,BREAK_ROOM_3_REFERENCEPOINT1,0.0000
 Sky Daylight Factors,Clear Sky,01/01,BREAK_ROOM_3_DAYLIGHT,BREAK_ROOM_3,BREAK_ROOM_3_WINDOW_4,BREAK_ROOM_3_REFERENCEPOINT1,0.0000
 Sky Daylight Factors,Clear Turbid Sky,01/01,BREAK_ROOM_3_DAYLIGHT,BREAK_ROOM_3,BREAK_ROOM_3_WINDOW_4,BREAK_ROOM_3_REFERENCEPOINT1,0.0000
 Sky Daylight Factors,Intermediate Sky,01/01,BREAK_ROOM_3_DAYLIGHT,BREAK_ROOM_3,BREAK_ROOM_3_WINDOW_4,BREAK_ROOM_3_REFERENCEPOINT1,0.0000
 Sky Daylight Factors,Overcast Sky,01/01,BREAK_ROOM_3_DAYLIGHT,BREAK_ROOM_3,BREAK_ROOM_3_WINDOW_4,BREAK_ROOM_3_REFERENCEPOINT1,0.0000
 Sky Daylight Factors,Clear Sky,01/01,LOBBY_4_DAYLIGHT,LOBBY_4,LOBBY_4_WINDOW_1,LOBBY_4_REFERENCEPOINT1,1.3151E-002
 Sky Daylight Factors,Clear Turbid Sky,01/01,LOBBY_4_DAYLIGHT,LOBBY_4,LOBBY_4_WINDOW_1,LOBBY_4_REFERENCEPOINT1,1.4639E-002
 Sky Daylight Factors,Intermediate Sky,01/01,LOBBY_4_DAYLIGHT,LOBBY_4,LOBBY_4_WINDOW_1,LOBBY_4_REFERENCEPOINT1,9.3567E-003
 Sky Daylight Factors,Overcast Sky,01/01,LOBBY_4_DAYLIGHT,LOBBY_4,LOBBY_4_WINDOW_1,LOBBY_4_REFERENCEPOINT1,4.8986E-003
 Sky Daylight Factors,Clear Sky,01/01,LOBBY_4_DAYLIGHT,LOBBY_4,LOBBY_4_WINDOW_2,LOBBY_4_REFERENCEPOINT1,0.0000
 Sky Daylight Factors,Clear Turbid Sky,01/01,LOBBY_4_DAYLIGHT,LOBBY_4,LOBBY_4_WINDOW_2,LOBBY_4_REFERENCEPOINT1,0.0000
 Sky Daylight Factors,Intermediate Sky,01/01,LOBBY_4_DAYLIGHT,LOBBY_4,LOBBY_4_WINDOW_2,LOBBY_4_REFERENCEPOINT1,0.0000
 Sky Daylight Factors,Overcast Sky,01/01,LOBBY_4_DAYLIGHT,LOBBY_4,LOBBY_4_WINDOW_2,LOBBY_4_REFERENCEPOINT1,0.0000
 Sky Daylight Factors,Clear Sky,01/01,LOBBY_4_DAYLIGHT,LOBBY_4,LOBBY_4_WINDOW_3,LOBBY_4_REFERENCEPOINT1,9.4640E-003
 Sky Daylight Factors,Clear Turbid Sky,01/01,LOBBY_4_DAYLIGHT,LOBBY_4,LOBBY_4_WINDOW_3,LOBBY_4_REFERENCEPOINT1,7.7059E-003
 Sky Daylight Factors,Intermediate Sky,01/01,LOBBY_4_DAYLIGHT,LOBBY_4,LOBBY_4_WINDOW_3,LOBBY_4_REFERENCEPOINT1,6.9139E-003
 Sky Daylight Factors,Overcast Sky,01/01,LOBBY_4_DAYLIGHT,LOBBY_4,LOBBY_4_WINDOW_3,LOBBY_4_REFERENCEPOINT1,9.5517E-003
 Sky Daylight Factors,Clear Sky,01/01,LOBBY_4_DAYLIGHT,LOBBY_4,LOBBY_4_WINDOW_4,LOBBY_4_REFERENCEPOINT1,3.9218E-003
 Sky Daylight Factors,Clear Turbid Sky,01/01,LOBBY_4_DAYLIGHT,LOBBY_4,LOBBY_4_WINDOW_4,LOBBY_4_REFERENCEPOINT1,3.6768E-003
 Sky Daylight Factors,Intermediate Sky,01/01,LOBBY_4_DAYLIGHT,LOBBY_4,LOBBY_4_WINDOW_4,LOBBY_4_REFERENCEPOINT1,3.6958E-003
 Sky Daylight Factors,Overcast Sky,01/01,LOBBY_4_DAYLIGHT,LOBBY_4,LOBBY_4_WINDOW_4,LOBBY_4_REFERENCEPOINT1,3.1767E-003
 Sky Daylight Factors,Clear Sky,01/01,BREAK_ROOM_4_DAYLIGHT,BREAK_ROOM_4,BREAK_ROOM_4_WINDOW_1,BREAK_ROOM_4_REFERENCEPOINT1,0.0000
 Sky Daylight Factors,Clear Turbid Sky,01/01,BREAK_ROOM_4_DAYLIGHT,BREAK_ROOM_4,BREAK_ROOM_4_WINDOW_1,BREAK_ROOM_4_REFERENCEPOINT1,0.0000
 Sky Daylight Factors,Intermediate Sky,01/01,BREAK_ROOM_4_DAYLIGHT,BREAK_ROOM_4,BREAK_ROOM_4_WINDOW_1,BREAK_ROOM_4_REFERENCEPOINT1,0.0000
 Sky Daylight Factors,Overcast Sky,01/01,BREAK_ROOM_4_DAYLIGHT,BREAK_ROOM_4,BREAK_ROOM_4_WINDOW_1,BREAK_ROOM_4_REFERENCEPOINT1,0.0000
 Sky Daylight Factors,Clear Sky,01/01,BREAK_ROOM_4_DAYLIGHT,BREAK_ROOM_4,BREAK_ROOM_4_WINDOW_2,BREAK_ROOM_4_REFERENCEPOINT1,5.7941E-003
 Sky Daylight Factors,Clear Turbid Sky,01/01,BREAK_ROOM_4_DAYLIGHT,BREAK_ROOM_4,BREAK_ROOM_4_WINDOW_2,BREAK_ROOM_4_REFERENCEPOINT1,5.4293E-003
 Sky Daylight Factors,Intermediate Sky,01/01,BREAK_ROOM_4_DAYLIGHT,BREAK_ROOM_4,BREAK_ROOM_4_WINDOW_2,BREAK_ROOM_4_REFERENCEPOINT1,5.4681E-003
 Sky Daylight Factors,Overcast Sky,01/01,BREAK_ROOM_4_DAYLIGHT,BREAK_ROOM_4,BREAK_ROOM_4_WINDOW_2,BREAK_ROOM_4_REFERENCEPOINT1,4.7259E-003
 Sky Daylight Factors,Clear Sky,01/01,BREAK_ROOM_4_DAYLIGHT,BREAK_ROOM_4,BREAK_ROOM_4_WINDOW_3,BREAK_ROOM_4_REFERENCEPOINT1,8.5333E-003
 Sky Daylight Factors,Clear Turbid Sky,01/01,BREAK_ROOM_4_DAYLIGHT,BREAK_ROOM_4,BREAK_ROOM_4_WINDOW_3,BREAK_ROOM_4_REFERENCEPOINT1,6.9509E-003
 Sky Daylight Factors,Intermediate Sky,01/01,BREAK_ROOM_4_DAYLIGHT,BREAK_ROOM_4,BREAK_ROOM_4_WINDOW_3,BREAK_ROOM_4_REFERENCEPOINT1,6.2381E-003
 Sky Daylight Factors,Overcast Sky,01/01,BREAK_ROOM_4_DAYLIGHT,BREAK_ROOM_4,BREAK_ROOM_4_WINDOW_3,BREAK_ROOM_4_REFERENCEPOINT1,8.6122E-003
 Sky Daylight Factors,Clear Sky,01/01,BREAK_ROOM_4_DAYLIGHT,BREAK_ROOM_4,BREAK_ROOM_4_WINDOW_4,BREAK_ROOM_4_REFERENCEPOINT1,0.0000
 Sky Daylight Factors,Clear Turbid Sky,01/01,BREAK_ROOM_4_DAYLIGHT,BREAK_ROOM_4,BREAK_ROOM_4_WINDOW_4,BREAK_ROOM_4_REFERENCEPOINT1,0.0000
 Sky Daylight Factors,Intermediate Sky,01/01,BREAK_ROOM_4_DAYLIGHT,BREAK_ROOM_4,BREAK_ROOM_4_WINDOW_4,BREAK_ROOM_4_REFERENCEPOINT1,0.0000
 Sky Daylight Factors,Overcast Sky,01/01,BREAK_ROOM_4_DAYLIGHT,BREAK_ROOM_4,BREAK_ROOM_4_WINDOW_4,BREAK_ROOM_4_REFERENCEPOINT1,0.0000
Environment:WarmupDays,  7
! <Warmup Convergence Information>,Zone Name,Environment Type/Name,Average Warmup Temperature Difference {deltaC},Std Dev Warmup Temperature Difference {deltaC},Max Temperature Pass/Fail Convergence,Min Temperature Pass/Fail Convergence,Average Warmup Load Difference {W},Std Dev Warmup Load Difference {W},Heating Load Pass/Fail Convergence,Cooling Load Pass/Fail Convergence
 Warmup Convergence Information,LOBBY_0,RunPeriod: YEAR ROUND RUN PERIOD,0.1494905996,0.1491613666,Pass,Pass,1.5028067664E-002,1.5859624410E-002,Pass,Pass
 Warmup Convergence Information,CONFERENCE_0,RunPeriod: YEAR ROUND RUN PERIOD,0.1747740836,0.1805321140,Pass,Pass,1.6413378401E-002,1.7670319058E-002,Pass,Pass
 Warmup Convergence Information,BREAK_ROOM_0,RunPeriod: YEAR ROUND RUN PERIOD,0.1787514045,0.1854235893,Pass,Pass,1.7227381692E-002,1.8620129931E-002,Pass,Pass
 Warmup Convergence Information,MECHANICAL_0,RunPeriod: YEAR ROUND RUN PERIOD,0.1851893819,0.1929154457,Pass,Pass,1.5784859316E-002,1.7042995518E-002,Pass,Pass
 Warmup Convergence Information,LOBBY_1,RunPeriod: YEAR ROUND RUN PERIOD,0.1650291667,0.1689764220,Pass,Pass,1.5033529597E-002,1.5988466434E-002,Pass,Pass
 Warmup Convergence Information,CONFERENCE_1,RunPeriod: YEAR ROUND RUN PERIOD,0.1532691558,0.1544357922,Pass,Pass,1.5102977316E-002,1.5973122565E-002,Pass,Pass
 Warmup Convergence Information,LOBBY_2,RunPeriod: YEAR ROUND RUN PERIOD,0.1520043553,0.1532490784,Pass,Pass,1.4299425370E-002,1.5069685916E-002,Pass,Pass
 Warmup Convergence Information,CONFERENCE_2,RunPeriod: YEAR ROUND RUN PERIOD,0.1612701330,0.1646769859,Pass,Pass,1.5060754508E-002,1.5976146470E-002,Pass,Pass
 Warmup Convergence Information,MECHANICAL_2,RunPeriod: YEAR ROUND RUN PERIOD,0.1643278599,0.1677246643,Pass,Pass,1.4411880368E-002,1.5244397863E-002,Pass,Pass
 Warmup Convergence Information,LOBBY_3,RunPeriod: YEAR ROUND RUN PERIOD,0.1461574497,0.1460680902,Pass,Pass,1.3969410554E-002,1.4632289125E-002,Pass,Pass
 Warmup Convergence Information,CONFERENCE_3,RunPeriod: YEAR ROUND RUN PERIOD,0.1544535838,0.1563480025,Pass,Pass,1.4730610455E-002,1.5594002615E-002,Pass,Pass
 Warmup Convergence Information,BREAK_ROOM_3,RunPeriod: YEAR ROUND RUN PERIOD,0.1603820820,0.1636060606,Pass,Pass,1.5494896020E-002,1.6498400480E-002,Pass,Pass
 Warmup Convergence Information,MECHANICAL_3,RunPeriod: YEAR ROUND RUN PERIOD,0.1660052243,0.1701402457,Pass,Pass,1.4260862537E-002,1.5115694905E-002,Pass,Pass
 Warmup Convergence Information,LOBBY_4,RunPeriod: YEAR ROUND RUN PERIOD,0.1531985075,0.1549133336,Pass,Pass,1.4124970666E-002,1.4905771456E-002,Pass,Pass
 Warmup Convergence Information,BREAK_ROOM_4,RunPeriod: YEAR ROUND RUN PERIOD,0.1717011612,0.1781302629,Pass,Pass,1.5807323108E-002,1.6966898806E-002,Pass,Pass
! <Program Control Information:Threads/Parallel Sims>, Threading Supported,Maximum Number of Threads, Env Set Threads (OMP_NUM_THREADS), EP Env Set Threads (EP_OMP_NUM_THREADS), IDF Set Threads, Number of Threads Used (Interior Radiant Exchange), Number Nominal Surfaces, Number Parallel Sims
Program Control:Threads/Parallel Sims, No,1, N/A, N/A, N/A, N/A, N/A, N/A
End of Data
