Program Version,EnergyPlus, Version 24.2.0-94a887817b, YMD=2025.11.04 00:05,
   ** Warning ** Version: in IDF="25.1" not the same as expected="24.2"
   ** Warning ** Version: in IDF="25.1" not the same as expected="24.2"
   ** Warning ** Site:GroundTemperature:BuildingSurface: Some values fall outside the range of 15-25C.
   **   ~~~   ** These values may be inappropriate.  Please consult the Input Output Reference for more details.
   ** Warning ** Weather file location will be used rather than entered (IDF) Location object.
   **   ~~~   ** ..Location object=SITE
   **   ~~~   ** ..Weather File Location=Chicago Ohare Intl Ap IL USA TMY3 WMO#=725300
   **   ~~~   ** ..due to location differences, Latitude difference=[0.10] degrees, Longitude difference=[0.28] degrees.
   **   ~~~   ** ..Time Zone difference=[2.0] hour(s), Elevation difference=[1910.00] percent, [191.00] meters.
   ** Warning ** ProcessScheduleInput: Schedule:Compact="BREAK_ROOM_LIGHTING" has missing day types in Through=12/31
   **   ~~~   ** Last "For" field=FOR: WEEKENDS
   **   ~~~   ** Missing day types="Holiday","SummerDesignDay","WinterDesignDay","CustomDay1","CustomDay2"
   **   ~~~   ** Missing day types will have 0.0 as Schedule Values
   ** Warning ** ProcessScheduleInput: Schedule:Compact="BREAK_ROOM_EQUIPMENT" has missing day types in Through=12/31
   **   ~~~   ** Last "For" field=FOR: WEEKENDS
   **   ~~~   ** Missing day types="Holiday","SummerDesignDay","WinterDesignDay","CustomDay1","CustomDay2"
   **   ~~~   ** Missing day types will have 0.0 as Schedule Values
   ** Warning ** ProcessScheduleInput: Schedule:Compact="CONFERENCE_OCCUPANCY" has missing day types in Through=12/31
   **   ~~~   ** Last "For" field=FOR: WEEKENDS
   **   ~~~   ** Missing day types="Holiday","SummerDesignDay","WinterDesignDay","CustomDay1","CustomDay2"
   **   ~~~   ** Missing day types will have 0.0 as Schedule Values
   ** Warning ** ProcessScheduleInput: Schedule:Compact="CONFERENCE_LIGHTING" has missing day types in Through=12/31
   **   ~~~   ** Last "For" field=FOR: WEEKENDS
   **   ~~~   ** Missing day types="Holiday","SummerDesignDay","WinterDesignDay","CustomDay1","CustomDay2"
   **   ~~~   ** Missing day types will have 0.0 as Schedule Values
   ** Warning ** ProcessScheduleInput: Schedule:Compact="CONFERENCE_EQUIPMENT" has missing day types in Through=12/31
   **   ~~~   ** Last "For" field=FOR: WEEKENDS
   **   ~~~   ** Missing day types="Holiday","SummerDesignDay","WinterDesignDay","CustomDay1","CustomDay2"
   **   ~~~   ** Missing day types will have 0.0 as Schedule Values
   ** Warning ** ProcessScheduleInput: Schedule:Compact="LOBBY_LIGHTING" has missing day types in Through=12/31
   **   ~~~   ** Last "For" field=FOR: WEEKENDS
   **   ~~~   ** Missing day types="Holiday","SummerDesignDay","WinterDesignDay","CustomDay1","CustomDay2"
   **   ~~~   ** Missing day types will have 0.0 as Schedule Values
   ** Warning ** ProcessScheduleInput: Schedule:Compact="LOBBY_EQUIPMENT" has missing day types in Through=12/31
   **   ~~~   ** Last "For" field=FOR: WEEKENDS
   **   ~~~   ** Missing day types="Holiday","SummerDesignDay","WinterDesignDay","CustomDay1","CustomDay2"
   **   ~~~   ** Missing day types will have 0.0 as Schedule Values
   ** Warning ** ProcessScheduleInput: Schedule:Compact="MECHANICAL_LIGHTING" has missing day types in Through=12/31
   **   ~~~   ** Last "For" field=FOR: WEEKENDS
   **   ~~~   ** Missing day types="Holiday","SummerDesignDay","WinterDesignDay","CustomDay1","CustomDay2"
   **   ~~~   ** Missing day types will have 0.0 as Schedule Values
   ** Warning ** ProcessScheduleInput: Schedule:Compact="MECHANICAL_EQUIPMENT" has missing day types in Through=12/31
   **   ~~~   ** Last "For" field=FOR: WEEKENDS
   **   ~~~   ** Missing day types="Holiday","SummerDesignDay","WinterDesignDay","CustomDay1","CustomDay2"
   **   ~~~   ** Missing day types will have 0.0 as Schedule Values
   ** Warning ** ProcessScheduleInput: Schedule:Compact="OFFICE_OPEN_OCCUPANCY" has missing day types in Through=12/31
   **   ~~~   ** Last "For" field=FOR: WEEKENDS
   **   ~~~   ** Missing day types="Holiday","SummerDesignDay","WinterDesignDay","CustomDay1","CustomDay2"
   **   ~~~   ** Missing day types will have 0.0 as Schedule Values
   ** Warning ** ProcessScheduleInput: Schedule:Compact="OFFICE_OPEN_LIGHTING" has missing day types in Through=12/31
   **   ~~~   ** Last "For" field=FOR: WEEKENDS
   **   ~~~   ** Missing day types="Holiday","SummerDesignDay","WinterDesignDay","CustomDay1","CustomDay2"
   **   ~~~   ** Missing day types will have 0.0 as Schedule Values
   ** Warning ** ProcessScheduleInput: Schedule:Compact="OFFICE_OPEN_EQUIPMENT" has missing day types in Through=12/31
   **   ~~~   ** Last "For" field=FOR: WEEKENDS
   **   ~~~   ** Missing day types="Holiday","SummerDesignDay","WinterDesignDay","CustomDay1","CustomDay2"
   **   ~~~   ** Missing day types will have 0.0 as Schedule Values
   ** Warning ** ProcessScheduleInput: Schedule:Compact="STORAGE_LIGHTING" has missing day types in Through=12/31
   **   ~~~   ** Last "For" field=FOR: WEEKENDS
   **   ~~~   ** Missing day types="Holiday","SummerDesignDay","WinterDesignDay","CustomDay1","CustomDay2"
   **   ~~~   ** Missing day types will have 0.0 as Schedule Values
   ** Warning ** ProcessScheduleInput: Schedule:Compact="STORAGE_EQUIPMENT" has missing day types in Through=12/31
   **   ~~~   ** Last "For" field=FOR: WEEKENDS
   **   ~~~   ** Missing day types="Holiday","SummerDesignDay","WinterDesignDay","CustomDay1","CustomDay2"
   **   ~~~   ** Missing day types will have 0.0 as Schedule Values
   ** Warning ** GetVertices: Floor is upside down! Tilt angle=[0.0], should be near 180, Surface="LOBBY_0_FLOOR", in Zone="LOBBY_0".
   **   ~~~   ** Automatic fix is attempted.
   ** Warning ** GetVertices: Roof/Ceiling is upside down! Tilt angle=[180.0], should be near 0, Surface="LOBBY_0_CEILING", in Zone="LOBBY_0".
   **   ~~~   ** Automatic fix is attempted.
   ** Warning ** GetVertices: Floor is upside down! Tilt angle=[0.0], should be near 180, Surface="CONFERENCE_0_FLOOR", in Zone="CONFERENCE_0".
   **   ~~~   ** Automatic fix is attempted.
   ** Warning ** GetVertices: Roof/Ceiling is upside down! Tilt angle=[180.0], should be near 0, Surface="CONFERENCE_0_CEILING", in Zone="CONFERENCE_0".
   **   ~~~   ** Automatic fix is attempted.
   ** Warning ** GetVertices: Floor is upside down! Tilt angle=[0.0], should be near 180, Surface="BREAK_ROOM_0_FLOOR", in Zone="BREAK_ROOM_0".
   **   ~~~   ** Automatic fix is attempted.
   ** Warning ** GetVertices: Roof/Ceiling is upside down! Tilt angle=[180.0], should be near 0, Surface="BREAK_ROOM_0_CEILING", in Zone="BREAK_ROOM_0".
   **   ~~~   ** Automatic fix is attempted.
   ** Warning ** GetVertices: Floor is upside down! Tilt angle=[0.0], should be near 180, Surface="MECHANICAL_0_FLOOR", in Zone="MECHANICAL_0".
   **   ~~~   ** Automatic fix is attempted.
   ** Warning ** GetVertices: Roof/Ceiling is upside down! Tilt angle=[180.0], should be near 0, Surface="MECHANICAL_0_CEILING", in Zone="MECHANICAL_0".
   **   ~~~   ** Automatic fix is attempted.
   ** Warning ** GetVertices: Floor is upside down! Tilt angle=[0.0], should be near 180, Surface="OFFICE_OPEN_0_FLOOR", in Zone="OFFICE_OPEN_0".
   **   ~~~   ** Automatic fix is attempted.
   ** Warning ** GetVertices: Roof/Ceiling is upside down! Tilt angle=[180.0], should be near 0, Surface="OFFICE_OPEN_0_CEILING", in Zone="OFFICE_OPEN_0".
   **   ~~~   ** Automatic fix is attempted.
   ** Warning ** GetVertices: Floor is upside down! Tilt angle=[0.0], should be near 180, Surface="OFFICE_PRIVATE_0_FLOOR", in Zone="OFFICE_PRIVATE_0".
   **   ~~~   ** Automatic fix is attempted.
   ** Warning ** GetVertices: Roof/Ceiling is upside down! Tilt angle=[180.0], should be near 0, Surface="OFFICE_PRIVATE_0_CEILING", in Zone="OFFICE_PRIVATE_0".
   **   ~~~   ** Automatic fix is attempted.
   ** Warning ** GetVertices: Floor is upside down! Tilt angle=[0.0], should be near 180, Surface="STORAGE_0_FLOOR", in Zone="STORAGE_0".
   **   ~~~   ** Automatic fix is attempted.
   ** Warning ** GetVertices: Roof/Ceiling is upside down! Tilt angle=[180.0], should be near 0, Surface="STORAGE_0_CEILING", in Zone="STORAGE_0".
   **   ~~~   ** Automatic fix is attempted.
   ** Warning ** GetVertices: Floor is upside down! Tilt angle=[0.0], should be near 180, Surface="OFFICE_OPEN_0_2_FLOOR", in Zone="OFFICE_OPEN_0_2".
   **   ~~~   ** Automatic fix is attempted.
   ** Warning ** GetVertices: Roof/Ceiling is upside down! Tilt angle=[180.0], should be near 0, Surface="OFFICE_OPEN_0_2_CEILING", in Zone="OFFICE_OPEN_0_2".
   **   ~~~   ** Automatic fix is attempted.
   ** Warning ** GetVertices: Floor is upside down! Tilt angle=[0.0], should be near 180, Surface="OFFICE_OPEN_0_3_FLOOR", in Zone="OFFICE_OPEN_0_3".
   **   ~~~   ** Automatic fix is attempted.
   ** Warning ** GetVertices: Roof/Ceiling is upside down! Tilt angle=[180.0], should be near 0, Surface="OFFICE_OPEN_0_3_CEILING", in Zone="OFFICE_OPEN_0_3".
   **   ~~~   ** Automatic fix is attempted.
   ** Warning ** GetVertices: Floor is upside down! Tilt angle=[0.0], should be near 180, Surface="OFFICE_OPEN_0_4_FLOOR", in Zone="OFFICE_OPEN_0_4".
   **   ~~~   ** Automatic fix is attempted.
   ** Warning ** GetVertices: Roof/Ceiling is upside down! Tilt angle=[180.0], should be near 0, Surface="OFFICE_OPEN_0_4_CEILING", in Zone="OFFICE_OPEN_0_4".
   **   ~~~   ** Automatic fix is attempted.
   ** Warning ** GetVertices: Floor is upside down! Tilt angle=[0.0], should be near 180, Surface="OFFICE_OPEN_0_5_FLOOR", in Zone="OFFICE_OPEN_0_5".
   **   ~~~   ** Automatic fix is attempted.
   ** Warning ** GetVertices: Roof/Ceiling is upside down! Tilt angle=[180.0], should be near 0, Surface="OFFICE_OPEN_0_5_CEILING", in Zone="OFFICE_OPEN_0_5".
   **   ~~~   ** Automatic fix is attempted.
   ** Warning ** GetVertices: Floor is upside down! Tilt angle=[0.0], should be near 180, Surface="OFFICE_OPEN_0_6_FLOOR", in Zone="OFFICE_OPEN_0_6".
   **   ~~~   ** Automatic fix is attempted.
   ** Warning ** GetVertices: Roof/Ceiling is upside down! Tilt angle=[180.0], should be near 0, Surface="OFFICE_OPEN_0_6_CEILING", in Zone="OFFICE_OPEN_0_6".
   **   ~~~   ** Automatic fix is attempted.
   ** Warning ** GetVertices: Floor is upside down! Tilt angle=[0.0], should be near 180, Surface="OFFICE_OPEN_0_7_FLOOR", in Zone="OFFICE_OPEN_0_7".
   **   ~~~   ** Automatic fix is attempted.
   ** Warning ** GetVertices: Roof/Ceiling is upside down! Tilt angle=[180.0], should be near 0, Surface="OFFICE_OPEN_0_7_CEILING", in Zone="OFFICE_OPEN_0_7".
   **   ~~~   ** Automatic fix is attempted.
   ** Warning ** GetVertices: Floor is upside down! Tilt angle=[0.0], should be near 180, Surface="OFFICE_OPEN_0_8_FLOOR", in Zone="OFFICE_OPEN_0_8".
   **   ~~~   ** Automatic fix is attempted.
   ** Warning ** GetVertices: Roof/Ceiling is upside down! Tilt angle=[180.0], should be near 0, Surface="OFFICE_OPEN_0_8_CEILING", in Zone="OFFICE_OPEN_0_8".
   **   ~~~   ** Automatic fix is attempted.
   ** Warning ** GetVertices: Floor is upside down! Tilt angle=[0.0], should be near 180, Surface="OFFICE_OPEN_0_9_FLOOR", in Zone="OFFICE_OPEN_0_9".
   **   ~~~   ** Automatic fix is attempted.
   ** Warning ** GetVertices: Roof/Ceiling is upside down! Tilt angle=[180.0], should be near 0, Surface="OFFICE_OPEN_0_9_CEILING", in Zone="OFFICE_OPEN_0_9".
   **   ~~~   ** Automatic fix is attempted.
   ** Warning ** GetVertices: Floor is upside down! Tilt angle=[0.0], should be near 180, Surface="OFFICE_OPEN_0_10_FLOOR", in Zone="OFFICE_OPEN_0_10".
   **   ~~~   ** Automatic fix is attempted.
   ** Warning ** GetVertices: Roof/Ceiling is upside down! Tilt angle=[180.0], should be near 0, Surface="OFFICE_OPEN_0_10_CEILING", in Zone="OFFICE_OPEN_0_10".
   **   ~~~   ** Automatic fix is attempted.
   ** Warning ** GetVertices: Floor is upside down! Tilt angle=[0.0], should be near 180, Surface="OFFICE_OPEN_0_11_FLOOR", in Zone="OFFICE_OPEN_0_11".
   **   ~~~   ** Automatic fix is attempted.
   ** Warning ** GetVertices: Roof/Ceiling is upside down! Tilt angle=[180.0], should be near 0, Surface="OFFICE_OPEN_0_11_CEILING", in Zone="OFFICE_OPEN_0_11".
   **   ~~~   ** Automatic fix is attempted.
   ** Warning ** GetVertices: Floor is upside down! Tilt angle=[0.0], should be near 180, Surface="OFFICE_OPEN_0_12_FLOOR", in Zone="OFFICE_OPEN_0_12".
   **   ~~~   ** Automatic fix is attempted.
   ** Warning ** GetVertices: Roof/Ceiling is upside down! Tilt angle=[180.0], should be near 0, Surface="OFFICE_OPEN_0_12_CEILING", in Zone="OFFICE_OPEN_0_12".
   **   ~~~   ** Automatic fix is attempted.
   ** Warning ** GetVertices: Floor is upside down! Tilt angle=[0.0], should be near 180, Surface="OFFICE_OPEN_0_13_FLOOR", in Zone="OFFICE_OPEN_0_13".
   **   ~~~   ** Automatic fix is attempted.
   ** Warning ** GetVertices: Roof/Ceiling is upside down! Tilt angle=[180.0], should be near 0, Surface="OFFICE_OPEN_0_13_CEILING", in Zone="OFFICE_OPEN_0_13".
   **   ~~~   ** Automatic fix is attempted.
   ** Warning ** GetVertices: Floor is upside down! Tilt angle=[0.0], should be near 180, Surface="OFFICE_OPEN_0_14_FLOOR", in Zone="OFFICE_OPEN_0_14".
   **   ~~~   ** Automatic fix is attempted.
   ** Warning ** GetVertices: Roof/Ceiling is upside down! Tilt angle=[180.0], should be near 0, Surface="OFFICE_OPEN_0_14_CEILING", in Zone="OFFICE_OPEN_0_14".
   **   ~~~   ** Automatic fix is attempted.
   ** Warning ** GetVertices: Floor is upside down! Tilt angle=[0.0], should be near 180, Surface="OFFICE_OPEN_0_15_FLOOR", in Zone="OFFICE_OPEN_0_15".
   **   ~~~   ** Automatic fix is attempted.
   ** Warning ** GetVertices: Roof/Ceiling is upside down! Tilt angle=[180.0], should be near 0, Surface="OFFICE_OPEN_0_15_CEILING", in Zone="OFFICE_OPEN_0_15".
   **   ~~~   ** Automatic fix is attempted.
   ** Warning ** GetVertices: Floor is upside down! Tilt angle=[0.0], should be near 180, Surface="OFFICE_OPEN_0_16_FLOOR", in Zone="OFFICE_OPEN_0_16".
   **   ~~~   ** Automatic fix is attempted.
   ** Warning ** GetVertices: Roof/Ceiling is upside down! Tilt angle=[180.0], should be near 0, Surface="OFFICE_OPEN_0_16_CEILING", in Zone="OFFICE_OPEN_0_16".
   **   ~~~   ** Automatic fix is attempted.
   ** Warning ** GetVertices: Floor is upside down! Tilt angle=[0.0], should be near 180, Surface="OFFICE_OPEN_0_17_FLOOR", in Zone="OFFICE_OPEN_0_17".
   **   ~~~   ** Automatic fix is attempted.
   ** Warning ** GetVertices: Roof/Ceiling is upside down! Tilt angle=[180.0], should be near 0, Surface="OFFICE_OPEN_0_17_CEILING", in Zone="OFFICE_OPEN_0_17".
   **   ~~~   ** Automatic fix is attempted.
   ** Warning ** GetVertices: Floor is upside down! Tilt angle=[0.0], should be near 180, Surface="OFFICE_OPEN_0_18_FLOOR", in Zone="OFFICE_OPEN_0_18".
   **   ~~~   ** Automatic fix is attempted.
   ** Warning ** GetVertices: Roof/Ceiling is upside down! Tilt angle=[180.0], should be near 0, Surface="OFFICE_OPEN_0_18_CEILING", in Zone="OFFICE_OPEN_0_18".
   **   ~~~   ** Automatic fix is attempted.
   ** Warning ** GetVertices: Floor is upside down! Tilt angle=[0.0], should be near 180, Surface="OFFICE_OPEN_0_19_FLOOR", in Zone="OFFICE_OPEN_0_19".
   **   ~~~   ** Automatic fix is attempted.
   ** Warning ** GetVertices: Roof/Ceiling is upside down! Tilt angle=[180.0], should be near 0, Surface="OFFICE_OPEN_0_19_CEILING", in Zone="OFFICE_OPEN_0_19".
   **   ~~~   ** Automatic fix is attempted.
   ** Warning ** GetVertices: Floor is upside down! Tilt angle=[0.0], should be near 180, Surface="OFFICE_OPEN_0_20_FLOOR", in Zone="OFFICE_OPEN_0_20".
   **   ~~~   ** Automatic fix is attempted.
   ** Warning ** GetVertices: Roof/Ceiling is upside down! Tilt angle=[180.0], should be near 0, Surface="OFFICE_OPEN_0_20_CEILING", in Zone="OFFICE_OPEN_0_20".
   **   ~~~   ** Automatic fix is attempted.
   ** Warning ** GetVertices: Floor is upside down! Tilt angle=[0.0], should be near 180, Surface="OFFICE_OPEN_0_21_FLOOR", in Zone="OFFICE_OPEN_0_21".
   **   ~~~   ** Automatic fix is attempted.
   ** Warning ** GetVertices: Roof/Ceiling is upside down! Tilt angle=[180.0], should be near 0, Surface="OFFICE_OPEN_0_21_CEILING", in Zone="OFFICE_OPEN_0_21".
   **   ~~~   ** Automatic fix is attempted.
   ** Warning ** GetVertices: Floor is upside down! Tilt angle=[0.0], should be near 180, Surface="OFFICE_OPEN_0_22_FLOOR", in Zone="OFFICE_OPEN_0_22".
   **   ~~~   ** Automatic fix is attempted.
   ** Warning ** GetVertices: Roof/Ceiling is upside down! Tilt angle=[180.0], should be near 0, Surface="OFFICE_OPEN_0_22_CEILING", in Zone="OFFICE_OPEN_0_22".
   **   ~~~   ** Automatic fix is attempted.
   ** Warning ** GetVertices: Floor is upside down! Tilt angle=[0.0], should be near 180, Surface="OFFICE_OPEN_0_23_FLOOR", in Zone="OFFICE_OPEN_0_23".
   **   ~~~   ** Automatic fix is attempted.
   ** Warning ** GetVertices: Roof/Ceiling is upside down! Tilt angle=[180.0], should be near 0, Surface="OFFICE_OPEN_0_23_CEILING", in Zone="OFFICE_OPEN_0_23".
   **   ~~~   ** Automatic fix is attempted.
   ** Warning ** GetVertices: Floor is upside down! Tilt angle=[0.0], should be near 180, Surface="LOBBY_1_FLOOR", in Zone="LOBBY_1".
   **   ~~~   ** Automatic fix is attempted.
   ** Warning ** GetVertices: Roof/Ceiling is upside down! Tilt angle=[180.0], should be near 0, Surface="LOBBY_1_CEILING", in Zone="LOBBY_1".
   **   ~~~   ** Automatic fix is attempted.
   ** Warning ** GetVertices: Floor is upside down! Tilt angle=[0.0], should be near 180, Surface="CONFERENCE_1_FLOOR", in Zone="CONFERENCE_1".
   **   ~~~   ** Automatic fix is attempted.
   ** Warning ** GetVertices: Roof/Ceiling is upside down! Tilt angle=[180.0], should be near 0, Surface="CONFERENCE_1_CEILING", in Zone="CONFERENCE_1".
   **   ~~~   ** Automatic fix is attempted.
   ** Warning ** GetVertices: Floor is upside down! Tilt angle=[0.0], should be near 180, Surface="BREAK_ROOM_1_FLOOR", in Zone="BREAK_ROOM_1".
   **   ~~~   ** Automatic fix is attempted.
   ** Warning ** GetVertices: Roof/Ceiling is upside down! Tilt angle=[180.0], should be near 0, Surface="BREAK_ROOM_1_CEILING", in Zone="BREAK_ROOM_1".
   **   ~~~   ** Automatic fix is attempted.
   ** Warning ** GetVertices: Floor is upside down! Tilt angle=[0.0], should be near 180, Surface="MECHANICAL_1_FLOOR", in Zone="MECHANICAL_1".
   **   ~~~   ** Automatic fix is attempted.
   ** Warning ** GetVertices: Roof/Ceiling is upside down! Tilt angle=[180.0], should be near 0, Surface="MECHANICAL_1_CEILING", in Zone="MECHANICAL_1".
   **   ~~~   ** Automatic fix is attempted.
   ** Warning ** GetVertices: Floor is upside down! Tilt angle=[0.0], should be near 180, Surface="OFFICE_OPEN_1_FLOOR", in Zone="OFFICE_OPEN_1".
   **   ~~~   ** Automatic fix is attempted.
   ** Warning ** GetVertices: Roof/Ceiling is upside down! Tilt angle=[180.0], should be near 0, Surface="OFFICE_OPEN_1_CEILING", in Zone="OFFICE_OPEN_1".
   **   ~~~   ** Automatic fix is attempted.
   ** Warning ** GetVertices: Floor is upside down! Tilt angle=[0.0], should be near 180, Surface="OFFICE_PRIVATE_1_FLOOR", in Zone="OFFICE_PRIVATE_1".
   **   ~~~   ** Automatic fix is attempted.
   ** Warning ** GetVertices: Roof/Ceiling is upside down! Tilt angle=[180.0], should be near 0, Surface="OFFICE_PRIVATE_1_CEILING", in Zone="OFFICE_PRIVATE_1".
   **   ~~~   ** Automatic fix is attempted.
   ** Warning ** GetVertices: Floor is upside down! Tilt angle=[0.0], should be near 180, Surface="STORAGE_1_FLOOR", in Zone="STORAGE_1".
   **   ~~~   ** Automatic fix is attempted.
   ** Warning ** GetVertices: Roof/Ceiling is upside down! Tilt angle=[180.0], should be near 0, Surface="STORAGE_1_CEILING", in Zone="STORAGE_1".
   **   ~~~   ** Automatic fix is attempted.
   ** Warning ** GetVertices: Floor is upside down! Tilt angle=[0.0], should be near 180, Surface="OFFICE_OPEN_1_2_FLOOR", in Zone="OFFICE_OPEN_1_2".
   **   ~~~   ** Automatic fix is attempted.
   ** Warning ** GetVertices: Roof/Ceiling is upside down! Tilt angle=[180.0], should be near 0, Surface="OFFICE_OPEN_1_2_CEILING", in Zone="OFFICE_OPEN_1_2".
   **   ~~~   ** Automatic fix is attempted.
   ** Warning ** GetVertices: Floor is upside down! Tilt angle=[0.0], should be near 180, Surface="OFFICE_OPEN_1_3_FLOOR", in Zone="OFFICE_OPEN_1_3".
   **   ~~~   ** Automatic fix is attempted.
   ** Warning ** GetVertices: Roof/Ceiling is upside down! Tilt angle=[180.0], should be near 0, Surface="OFFICE_OPEN_1_3_CEILING", in Zone="OFFICE_OPEN_1_3".
   **   ~~~   ** Automatic fix is attempted.
   ** Warning ** GetVertices: Floor is upside down! Tilt angle=[0.0], should be near 180, Surface="OFFICE_OPEN_1_4_FLOOR", in Zone="OFFICE_OPEN_1_4".
   **   ~~~   ** Automatic fix is attempted.
   ** Warning ** GetVertices: Roof/Ceiling is upside down! Tilt angle=[180.0], should be near 0, Surface="OFFICE_OPEN_1_4_CEILING", in Zone="OFFICE_OPEN_1_4".
   **   ~~~   ** Automatic fix is attempted.
   ** Warning ** GetVertices: Floor is upside down! Tilt angle=[0.0], should be near 180, Surface="OFFICE_OPEN_1_5_FLOOR", in Zone="OFFICE_OPEN_1_5".
   **   ~~~   ** Automatic fix is attempted.
   ** Warning ** GetVertices: Roof/Ceiling is upside down! Tilt angle=[180.0], should be near 0, Surface="OFFICE_OPEN_1_5_CEILING", in Zone="OFFICE_OPEN_1_5".
   **   ~~~   ** Automatic fix is attempted.
   ** Warning ** GetVertices: Floor is upside down! Tilt angle=[0.0], should be near 180, Surface="OFFICE_OPEN_1_6_FLOOR", in Zone="OFFICE_OPEN_1_6".
   **   ~~~   ** Automatic fix is attempted.
   ** Warning ** GetVertices: Roof/Ceiling is upside down! Tilt angle=[180.0], should be near 0, Surface="OFFICE_OPEN_1_6_CEILING", in Zone="OFFICE_OPEN_1_6".
   **   ~~~   ** Automatic fix is attempted.
   ** Warning ** GetVertices: Floor is upside down! Tilt angle=[0.0], should be near 180, Surface="OFFICE_OPEN_1_7_FLOOR", in Zone="OFFICE_OPEN_1_7".
   **   ~~~   ** Automatic fix is attempted.
   ** Warning ** GetVertices: Roof/Ceiling is upside down! Tilt angle=[180.0], should be near 0, Surface="OFFICE_OPEN_1_7_CEILING", in Zone="OFFICE_OPEN_1_7".
   **   ~~~   ** Automatic fix is attempted.
   ** Warning ** GetVertices: Floor is upside down! Tilt angle=[0.0], should be near 180, Surface="OFFICE_OPEN_1_8_FLOOR", in Zone="OFFICE_OPEN_1_8".
   **   ~~~   ** Automatic fix is attempted.
   ** Warning ** GetVertices: Roof/Ceiling is upside down! Tilt angle=[180.0], should be near 0, Surface="OFFICE_OPEN_1_8_CEILING", in Zone="OFFICE_OPEN_1_8".
   **   ~~~   ** Automatic fix is attempted.
   ** Warning ** GetVertices: Floor is upside down! Tilt angle=[0.0], should be near 180, Surface="OFFICE_OPEN_1_9_FLOOR", in Zone="OFFICE_OPEN_1_9".
   **   ~~~   ** Automatic fix is attempted.
   ** Warning ** GetVertices: Roof/Ceiling is upside down! Tilt angle=[180.0], should be near 0, Surface="OFFICE_OPEN_1_9_CEILING", in Zone="OFFICE_OPEN_1_9".
   **   ~~~   ** Automatic fix is attempted.
   ** Warning ** GetVertices: Floor is upside down! Tilt angle=[0.0], should be near 180, Surface="OFFICE_OPEN_1_10_FLOOR", in Zone="OFFICE_OPEN_1_10".
   **   ~~~   ** Automatic fix is attempted.
   ** Warning ** GetVertices: Roof/Ceiling is upside down! Tilt angle=[180.0], should be near 0, Surface="OFFICE_OPEN_1_10_CEILING", in Zone="OFFICE_OPEN_1_10".
   **   ~~~   ** Automatic fix is attempted.
   ** Warning ** GetVertices: Floor is upside down! Tilt angle=[0.0], should be near 180, Surface="OFFICE_OPEN_1_11_FLOOR", in Zone="OFFICE_OPEN_1_11".
   **   ~~~   ** Automatic fix is attempted.
   ** Warning ** GetVertices: Roof/Ceiling is upside down! Tilt angle=[180.0], should be near 0, Surface="OFFICE_OPEN_1_11_CEILING", in Zone="OFFICE_OPEN_1_11".
   **   ~~~   ** Automatic fix is attempted.
   ** Warning ** GetVertices: Floor is upside down! Tilt angle=[0.0], should be near 180, Surface="OFFICE_OPEN_1_12_FLOOR", in Zone="OFFICE_OPEN_1_12".
   **   ~~~   ** Automatic fix is attempted.
   ** Warning ** GetVertices: Roof/Ceiling is upside down! Tilt angle=[180.0], should be near 0, Surface="OFFICE_OPEN_1_12_CEILING", in Zone="OFFICE_OPEN_1_12".
   **   ~~~   ** Automatic fix is attempted.
   ** Warning ** GetVertices: Floor is upside down! Tilt angle=[0.0], should be near 180, Surface="OFFICE_OPEN_1_13_FLOOR", in Zone="OFFICE_OPEN_1_13".
   **   ~~~   ** Automatic fix is attempted.
   ** Warning ** GetVertices: Roof/Ceiling is upside down! Tilt angle=[180.0], should be near 0, Surface="OFFICE_OPEN_1_13_CEILING", in Zone="OFFICE_OPEN_1_13".
   **   ~~~   ** Automatic fix is attempted.
   ** Warning ** GetVertices: Floor is upside down! Tilt angle=[0.0], should be near 180, Surface="OFFICE_OPEN_1_14_FLOOR", in Zone="OFFICE_OPEN_1_14".
   **   ~~~   ** Automatic fix is attempted.
   ** Warning ** GetVertices: Roof/Ceiling is upside down! Tilt angle=[180.0], should be near 0, Surface="OFFICE_OPEN_1_14_CEILING", in Zone="OFFICE_OPEN_1_14".
   **   ~~~   ** Automatic fix is attempted.
   ** Warning ** GetVertices: Floor is upside down! Tilt angle=[0.0], should be near 180, Surface="OFFICE_OPEN_1_15_FLOOR", in Zone="OFFICE_OPEN_1_15".
   **   ~~~   ** Automatic fix is attempted.
   ** Warning ** GetVertices: Roof/Ceiling is upside down! Tilt angle=[180.0], should be near 0, Surface="OFFICE_OPEN_1_15_CEILING", in Zone="OFFICE_OPEN_1_15".
   **   ~~~   ** Automatic fix is attempted.
   ** Warning ** GetVertices: Floor is upside down! Tilt angle=[0.0], should be near 180, Surface="OFFICE_OPEN_1_16_FLOOR", in Zone="OFFICE_OPEN_1_16".
   **   ~~~   ** Automatic fix is attempted.
   ** Warning ** GetVertices: Roof/Ceiling is upside down! Tilt angle=[180.0], should be near 0, Surface="OFFICE_OPEN_1_16_CEILING", in Zone="OFFICE_OPEN_1_16".
   **   ~~~   ** Automatic fix is attempted.
   ** Warning ** GetVertices: Floor is upside down! Tilt angle=[0.0], should be near 180, Surface="OFFICE_OPEN_1_17_FLOOR", in Zone="OFFICE_OPEN_1_17".
   **   ~~~   ** Automatic fix is attempted.
   ** Warning ** GetVertices: Roof/Ceiling is upside down! Tilt angle=[180.0], should be near 0, Surface="OFFICE_OPEN_1_17_CEILING", in Zone="OFFICE_OPEN_1_17".
   **   ~~~   ** Automatic fix is attempted.
   ** Warning ** GetVertices: Floor is upside down! Tilt angle=[0.0], should be near 180, Surface="OFFICE_OPEN_1_18_FLOOR", in Zone="OFFICE_OPEN_1_18".
   **   ~~~   ** Automatic fix is attempted.
   ** Warning ** GetVertices: Roof/Ceiling is upside down! Tilt angle=[180.0], should be near 0, Surface="OFFICE_OPEN_1_18_CEILING", in Zone="OFFICE_OPEN_1_18".
   **   ~~~   ** Automatic fix is attempted.
   ** Warning ** GetVertices: Floor is upside down! Tilt angle=[0.0], should be near 180, Surface="OFFICE_OPEN_1_19_FLOOR", in Zone="OFFICE_OPEN_1_19".
   **   ~~~   ** Automatic fix is attempted.
   ** Warning ** GetVertices: Roof/Ceiling is upside down! Tilt angle=[180.0], should be near 0, Surface="OFFICE_OPEN_1_19_CEILING", in Zone="OFFICE_OPEN_1_19".
   **   ~~~   ** Automatic fix is attempted.
   ** Warning ** GetVertices: Floor is upside down! Tilt angle=[0.0], should be near 180, Surface="OFFICE_OPEN_1_20_FLOOR", in Zone="OFFICE_OPEN_1_20".
   **   ~~~   ** Automatic fix is attempted.
   ** Warning ** GetVertices: Roof/Ceiling is upside down! Tilt angle=[180.0], should be near 0, Surface="OFFICE_OPEN_1_20_CEILING", in Zone="OFFICE_OPEN_1_20".
   **   ~~~   ** Automatic fix is attempted.
   ** Warning ** GetVertices: Floor is upside down! Tilt angle=[0.0], should be near 180, Surface="OFFICE_OPEN_1_21_FLOOR", in Zone="OFFICE_OPEN_1_21".
   **   ~~~   ** Automatic fix is attempted.
   ** Warning ** GetVertices: Roof/Ceiling is upside down! Tilt angle=[180.0], should be near 0, Surface="OFFICE_OPEN_1_21_CEILING", in Zone="OFFICE_OPEN_1_21".
   **   ~~~   ** Automatic fix is attempted.
   ** Warning ** GetVertices: Floor is upside down! Tilt angle=[0.0], should be near 180, Surface="OFFICE_OPEN_1_22_FLOOR", in Zone="OFFICE_OPEN_1_22".
   **   ~~~   ** Automatic fix is attempted.
   ** Warning ** GetVertices: Roof/Ceiling is upside down! Tilt angle=[180.0], should be near 0, Surface="OFFICE_OPEN_1_22_CEILING", in Zone="OFFICE_OPEN_1_22".
   **   ~~~   ** Automatic fix is attempted.
   ** Warning ** GetVertices: Floor is upside down! Tilt angle=[0.0], should be near 180, Surface="OFFICE_OPEN_1_23_FLOOR", in Zone="OFFICE_OPEN_1_23".
   **   ~~~   ** Automatic fix is attempted.
   ** Warning ** GetVertices: Roof/Ceiling is upside down! Tilt angle=[180.0], should be near 0, Surface="OFFICE_OPEN_1_23_CEILING", in Zone="OFFICE_OPEN_1_23".
   **   ~~~   ** Automatic fix is attempted.
   ** Warning ** GetVertices: Floor is upside down! Tilt angle=[0.0], should be near 180, Surface="LOBBY_2_FLOOR", in Zone="LOBBY_2".
   **   ~~~   ** Automatic fix is attempted.
   ** Warning ** GetVertices: Roof/Ceiling is upside down! Tilt angle=[180.0], should be near 0, Surface="LOBBY_2_CEILING", in Zone="LOBBY_2".
   **   ~~~   ** Automatic fix is attempted.
   ** Warning ** GetVertices: Floor is upside down! Tilt angle=[0.0], should be near 180, Surface="CONFERENCE_2_FLOOR", in Zone="CONFERENCE_2".
   **   ~~~   ** Automatic fix is attempted.
   ** Warning ** GetVertices: Roof/Ceiling is upside down! Tilt angle=[180.0], should be near 0, Surface="CONFERENCE_2_CEILING", in Zone="CONFERENCE_2".
   **   ~~~   ** Automatic fix is attempted.
   ** Warning ** GetVertices: Floor is upside down! Tilt angle=[0.0], should be near 180, Surface="BREAK_ROOM_2_FLOOR", in Zone="BREAK_ROOM_2".
   **   ~~~   ** Automatic fix is attempted.
   ** Warning ** GetVertices: Roof/Ceiling is upside down! Tilt angle=[180.0], should be near 0, Surface="BREAK_ROOM_2_CEILING", in Zone="BREAK_ROOM_2".
   **   ~~~   ** Automatic fix is attempted.
   ** Warning ** GetVertices: Floor is upside down! Tilt angle=[0.0], should be near 180, Surface="MECHANICAL_2_FLOOR", in Zone="MECHANICAL_2".
   **   ~~~   ** Automatic fix is attempted.
   ** Warning ** GetVertices: Roof/Ceiling is upside down! Tilt angle=[180.0], should be near 0, Surface="MECHANICAL_2_CEILING", in Zone="MECHANICAL_2".
   **   ~~~   ** Automatic fix is attempted.
   ** Warning ** GetVertices: Floor is upside down! Tilt angle=[0.0], should be near 180, Surface="OFFICE_OPEN_2_FLOOR", in Zone="OFFICE_OPEN_2".
   **   ~~~   ** Automatic fix is attempted.
   ** Warning ** GetVertices: Roof/Ceiling is upside down! Tilt angle=[180.0], should be near 0, Surface="OFFICE_OPEN_2_CEILING", in Zone="OFFICE_OPEN_2".
   **   ~~~   ** Automatic fix is attempted.
   ** Warning ** GetVertices: Floor is upside down! Tilt angle=[0.0], should be near 180, Surface="OFFICE_PRIVATE_2_FLOOR", in Zone="OFFICE_PRIVATE_2".
   **   ~~~   ** Automatic fix is attempted.
   ** Warning ** GetVertices: Roof/Ceiling is upside down! Tilt angle=[180.0], should be near 0, Surface="OFFICE_PRIVATE_2_CEILING", in Zone="OFFICE_PRIVATE_2".
   **   ~~~   ** Automatic fix is attempted.
   ** Warning ** GetVertices: Floor is upside down! Tilt angle=[0.0], should be near 180, Surface="STORAGE_2_FLOOR", in Zone="STORAGE_2".
   **   ~~~   ** Automatic fix is attempted.
   ** Warning ** GetVertices: Roof/Ceiling is upside down! Tilt angle=[180.0], should be near 0, Surface="STORAGE_2_CEILING", in Zone="STORAGE_2".
   **   ~~~   ** Automatic fix is attempted.
   ** Warning ** GetVertices: Floor is upside down! Tilt angle=[0.0], should be near 180, Surface="OFFICE_OPEN_2_2_FLOOR", in Zone="OFFICE_OPEN_2_2".
   **   ~~~   ** Automatic fix is attempted.
   ** Warning ** GetVertices: Roof/Ceiling is upside down! Tilt angle=[180.0], should be near 0, Surface="OFFICE_OPEN_2_2_CEILING", in Zone="OFFICE_OPEN_2_2".
   **   ~~~   ** Automatic fix is attempted.
   ** Warning ** GetVertices: Floor is upside down! Tilt angle=[0.0], should be near 180, Surface="OFFICE_OPEN_2_3_FLOOR", in Zone="OFFICE_OPEN_2_3".
   **   ~~~   ** Automatic fix is attempted.
   ** Warning ** GetVertices: Roof/Ceiling is upside down! Tilt angle=[180.0], should be near 0, Surface="OFFICE_OPEN_2_3_CEILING", in Zone="OFFICE_OPEN_2_3".
   **   ~~~   ** Automatic fix is attempted.
   ** Warning ** GetVertices: Floor is upside down! Tilt angle=[0.0], should be near 180, Surface="OFFICE_OPEN_2_4_FLOOR", in Zone="OFFICE_OPEN_2_4".
   **   ~~~   ** Automatic fix is attempted.
   ** Warning ** GetVertices: Roof/Ceiling is upside down! Tilt angle=[180.0], should be near 0, Surface="OFFICE_OPEN_2_4_CEILING", in Zone="OFFICE_OPEN_2_4".
   **   ~~~   ** Automatic fix is attempted.
   ** Warning ** GetVertices: Floor is upside down! Tilt angle=[0.0], should be near 180, Surface="OFFICE_OPEN_2_5_FLOOR", in Zone="OFFICE_OPEN_2_5".
   **   ~~~   ** Automatic fix is attempted.
   ** Warning ** GetVertices: Roof/Ceiling is upside down! Tilt angle=[180.0], should be near 0, Surface="OFFICE_OPEN_2_5_CEILING", in Zone="OFFICE_OPEN_2_5".
   **   ~~~   ** Automatic fix is attempted.
   ** Warning ** GetVertices: Floor is upside down! Tilt angle=[0.0], should be near 180, Surface="OFFICE_OPEN_2_6_FLOOR", in Zone="OFFICE_OPEN_2_6".
   **   ~~~   ** Automatic fix is attempted.
   ** Warning ** GetVertices: Roof/Ceiling is upside down! Tilt angle=[180.0], should be near 0, Surface="OFFICE_OPEN_2_6_CEILING", in Zone="OFFICE_OPEN_2_6".
   **   ~~~   ** Automatic fix is attempted.
   ** Warning ** GetVertices: Floor is upside down! Tilt angle=[0.0], should be near 180, Surface="OFFICE_OPEN_2_7_FLOOR", in Zone="OFFICE_OPEN_2_7".
   **   ~~~   ** Automatic fix is attempted.
   ** Warning ** GetVertices: Roof/Ceiling is upside down! Tilt angle=[180.0], should be near 0, Surface="OFFICE_OPEN_2_7_CEILING", in Zone="OFFICE_OPEN_2_7".
   **   ~~~   ** Automatic fix is attempted.
   ** Warning ** GetVertices: Floor is upside down! Tilt angle=[0.0], should be near 180, Surface="OFFICE_OPEN_2_8_FLOOR", in Zone="OFFICE_OPEN_2_8".
   **   ~~~   ** Automatic fix is attempted.
   ** Warning ** GetVertices: Roof/Ceiling is upside down! Tilt angle=[180.0], should be near 0, Surface="OFFICE_OPEN_2_8_CEILING", in Zone="OFFICE_OPEN_2_8".
   **   ~~~   ** Automatic fix is attempted.
   ** Warning ** GetVertices: Floor is upside down! Tilt angle=[0.0], should be near 180, Surface="OFFICE_OPEN_2_9_FLOOR", in Zone="OFFICE_OPEN_2_9".
   **   ~~~   ** Automatic fix is attempted.
   ** Warning ** GetVertices: Roof/Ceiling is upside down! Tilt angle=[180.0], should be near 0, Surface="OFFICE_OPEN_2_9_CEILING", in Zone="OFFICE_OPEN_2_9".
   **   ~~~   ** Automatic fix is attempted.
   ** Warning ** GetVertices: Floor is upside down! Tilt angle=[0.0], should be near 180, Surface="OFFICE_OPEN_2_10_FLOOR", in Zone="OFFICE_OPEN_2_10".
   **   ~~~   ** Automatic fix is attempted.
   ** Warning ** GetVertices: Roof/Ceiling is upside down! Tilt angle=[180.0], should be near 0, Surface="OFFICE_OPEN_2_10_CEILING", in Zone="OFFICE_OPEN_2_10".
   **   ~~~   ** Automatic fix is attempted.
   ** Warning ** GetVertices: Floor is upside down! Tilt angle=[0.0], should be near 180, Surface="OFFICE_OPEN_2_11_FLOOR", in Zone="OFFICE_OPEN_2_11".
   **   ~~~   ** Automatic fix is attempted.
   ** Warning ** GetVertices: Roof/Ceiling is upside down! Tilt angle=[180.0], should be near 0, Surface="OFFICE_OPEN_2_11_CEILING", in Zone="OFFICE_OPEN_2_11".
   **   ~~~   ** Automatic fix is attempted.
   ** Warning ** GetVertices: Floor is upside down! Tilt angle=[0.0], should be near 180, Surface="OFFICE_OPEN_2_12_FLOOR", in Zone="OFFICE_OPEN_2_12".
   **   ~~~   ** Automatic fix is attempted.
   ** Warning ** GetVertices: Roof/Ceiling is upside down! Tilt angle=[180.0], should be near 0, Surface="OFFICE_OPEN_2_12_CEILING", in Zone="OFFICE_OPEN_2_12".
   **   ~~~   ** Automatic fix is attempted.
   ** Warning ** GetVertices: Floor is upside down! Tilt angle=[0.0], should be near 180, Surface="OFFICE_OPEN_2_13_FLOOR", in Zone="OFFICE_OPEN_2_13".
   **   ~~~   ** Automatic fix is attempted.
   ** Warning ** GetVertices: Roof/Ceiling is upside down! Tilt angle=[180.0], should be near 0, Surface="OFFICE_OPEN_2_13_CEILING", in Zone="OFFICE_OPEN_2_13".
   **   ~~~   ** Automatic fix is attempted.
   ** Warning ** GetVertices: Floor is upside down! Tilt angle=[0.0], should be near 180, Surface="OFFICE_OPEN_2_14_FLOOR", in Zone="OFFICE_OPEN_2_14".
   **   ~~~   ** Automatic fix is attempted.
   ** Warning ** GetVertices: Roof/Ceiling is upside down! Tilt angle=[180.0], should be near 0, Surface="OFFICE_OPEN_2_14_CEILING", in Zone="OFFICE_OPEN_2_14".
   **   ~~~   ** Automatic fix is attempted.
   ** Warning ** GetVertices: Floor is upside down! Tilt angle=[0.0], should be near 180, Surface="OFFICE_OPEN_2_15_FLOOR", in Zone="OFFICE_OPEN_2_15".
   **   ~~~   ** Automatic fix is attempted.
   ** Warning ** GetVertices: Roof/Ceiling is upside down! Tilt angle=[180.0], should be near 0, Surface="OFFICE_OPEN_2_15_CEILING", in Zone="OFFICE_OPEN_2_15".
   **   ~~~   ** Automatic fix is attempted.
   ** Warning ** GetVertices: Floor is upside down! Tilt angle=[0.0], should be near 180, Surface="OFFICE_OPEN_2_16_FLOOR", in Zone="OFFICE_OPEN_2_16".
   **   ~~~   ** Automatic fix is attempted.
   ** Warning ** GetVertices: Roof/Ceiling is upside down! Tilt angle=[180.0], should be near 0, Surface="OFFICE_OPEN_2_16_CEILING", in Zone="OFFICE_OPEN_2_16".
   **   ~~~   ** Automatic fix is attempted.
   ** Warning ** GetVertices: Floor is upside down! Tilt angle=[0.0], should be near 180, Surface="OFFICE_OPEN_2_17_FLOOR", in Zone="OFFICE_OPEN_2_17".
   **   ~~~   ** Automatic fix is attempted.
   ** Warning ** GetVertices: Roof/Ceiling is upside down! Tilt angle=[180.0], should be near 0, Surface="OFFICE_OPEN_2_17_CEILING", in Zone="OFFICE_OPEN_2_17".
   **   ~~~   ** Automatic fix is attempted.
   ** Warning ** GetVertices: Floor is upside down! Tilt angle=[0.0], should be near 180, Surface="OFFICE_OPEN_2_18_FLOOR", in Zone="OFFICE_OPEN_2_18".
   **   ~~~   ** Automatic fix is attempted.
   ** Warning ** GetVertices: Roof/Ceiling is upside down! Tilt angle=[180.0], should be near 0, Surface="OFFICE_OPEN_2_18_CEILING", in Zone="OFFICE_OPEN_2_18".
   **   ~~~   ** Automatic fix is attempted.
   ** Warning ** GetVertices: Floor is upside down! Tilt angle=[0.0], should be near 180, Surface="OFFICE_OPEN_2_19_FLOOR", in Zone="OFFICE_OPEN_2_19".
   **   ~~~   ** Automatic fix is attempted.
   ** Warning ** GetVertices: Roof/Ceiling is upside down! Tilt angle=[180.0], should be near 0, Surface="OFFICE_OPEN_2_19_CEILING", in Zone="OFFICE_OPEN_2_19".
   **   ~~~   ** Automatic fix is attempted.
   ** Warning ** GetVertices: Floor is upside down! Tilt angle=[0.0], should be near 180, Surface="OFFICE_OPEN_2_20_FLOOR", in Zone="OFFICE_OPEN_2_20".
   **   ~~~   ** Automatic fix is attempted.
   ** Warning ** GetVertices: Roof/Ceiling is upside down! Tilt angle=[180.0], should be near 0, Surface="OFFICE_OPEN_2_20_CEILING", in Zone="OFFICE_OPEN_2_20".
   **   ~~~   ** Automatic fix is attempted.
   ** Warning ** GetVertices: Floor is upside down! Tilt angle=[0.0], should be near 180, Surface="OFFICE_OPEN_2_21_FLOOR", in Zone="OFFICE_OPEN_2_21".
   **   ~~~   ** Automatic fix is attempted.
   ** Warning ** GetVertices: Roof/Ceiling is upside down! Tilt angle=[180.0], should be near 0, Surface="OFFICE_OPEN_2_21_CEILING", in Zone="OFFICE_OPEN_2_21".
   **   ~~~   ** Automatic fix is attempted.
   ** Warning ** GetVertices: Floor is upside down! Tilt angle=[0.0], should be near 180, Surface="OFFICE_OPEN_2_22_FLOOR", in Zone="OFFICE_OPEN_2_22".
   **   ~~~   ** Automatic fix is attempted.
   ** Warning ** GetVertices: Roof/Ceiling is upside down! Tilt angle=[180.0], should be near 0, Surface="OFFICE_OPEN_2_22_CEILING", in Zone="OFFICE_OPEN_2_22".
   **   ~~~   ** Automatic fix is attempted.
   ** Warning ** GetVertices: Floor is upside down! Tilt angle=[0.0], should be near 180, Surface="OFFICE_OPEN_2_23_FLOOR", in Zone="OFFICE_OPEN_2_23".
   **   ~~~   ** Automatic fix is attempted.
   ** Warning ** GetVertices: Roof/Ceiling is upside down! Tilt angle=[180.0], should be near 0, Surface="OFFICE_OPEN_2_23_CEILING", in Zone="OFFICE_OPEN_2_23".
   **   ~~~   ** Automatic fix is attempted.
   ** Warning ** GetVertices: Floor is upside down! Tilt angle=[0.0], should be near 180, Surface="LOBBY_3_FLOOR", in Zone="LOBBY_3".
   **   ~~~   ** Automatic fix is attempted.
   ** Warning ** GetVertices: Roof/Ceiling is upside down! Tilt angle=[180.0], should be near 0, Surface="LOBBY_3_CEILING", in Zone="LOBBY_3".
   **   ~~~   ** Automatic fix is attempted.
   ** Warning ** GetVertices: Floor is upside down! Tilt angle=[0.0], should be near 180, Surface="CONFERENCE_3_FLOOR", in Zone="CONFERENCE_3".
   **   ~~~   ** Automatic fix is attempted.
   ** Warning ** GetVertices: Roof/Ceiling is upside down! Tilt angle=[180.0], should be near 0, Surface="CONFERENCE_3_CEILING", in Zone="CONFERENCE_3".
   **   ~~~   ** Automatic fix is attempted.
   ** Warning ** GetVertices: Floor is upside down! Tilt angle=[0.0], should be near 180, Surface="BREAK_ROOM_3_FLOOR", in Zone="BREAK_ROOM_3".
   **   ~~~   ** Automatic fix is attempted.
   ** Warning ** GetVertices: Roof/Ceiling is upside down! Tilt angle=[180.0], should be near 0, Surface="BREAK_ROOM_3_CEILING", in Zone="BREAK_ROOM_3".
   **   ~~~   ** Automatic fix is attempted.
   ** Warning ** GetVertices: Floor is upside down! Tilt angle=[0.0], should be near 180, Surface="MECHANICAL_3_FLOOR", in Zone="MECHANICAL_3".
   **   ~~~   ** Automatic fix is attempted.
   ** Warning ** GetVertices: Roof/Ceiling is upside down! Tilt angle=[180.0], should be near 0, Surface="MECHANICAL_3_CEILING", in Zone="MECHANICAL_3".
   **   ~~~   ** Automatic fix is attempted.
   ** Warning ** GetVertices: Floor is upside down! Tilt angle=[0.0], should be near 180, Surface="OFFICE_OPEN_3_FLOOR", in Zone="OFFICE_OPEN_3".
   **   ~~~   ** Automatic fix is attempted.
   ** Warning ** GetVertices: Roof/Ceiling is upside down! Tilt angle=[180.0], should be near 0, Surface="OFFICE_OPEN_3_CEILING", in Zone="OFFICE_OPEN_3".
   **   ~~~   ** Automatic fix is attempted.
   ** Warning ** GetVertices: Floor is upside down! Tilt angle=[0.0], should be near 180, Surface="OFFICE_PRIVATE_3_FLOOR", in Zone="OFFICE_PRIVATE_3".
   **   ~~~   ** Automatic fix is attempted.
   ** Warning ** GetVertices: Roof/Ceiling is upside down! Tilt angle=[180.0], should be near 0, Surface="OFFICE_PRIVATE_3_CEILING", in Zone="OFFICE_PRIVATE_3".
   **   ~~~   ** Automatic fix is attempted.
   ** Warning ** GetVertices: Floor is upside down! Tilt angle=[0.0], should be near 180, Surface="STORAGE_3_FLOOR", in Zone="STORAGE_3".
   **   ~~~   ** Automatic fix is attempted.
   ** Warning ** GetVertices: Roof/Ceiling is upside down! Tilt angle=[180.0], should be near 0, Surface="STORAGE_3_CEILING", in Zone="STORAGE_3".
   **   ~~~   ** Automatic fix is attempted.
   ** Warning ** GetVertices: Floor is upside down! Tilt angle=[0.0], should be near 180, Surface="OFFICE_OPEN_3_2_FLOOR", in Zone="OFFICE_OPEN_3_2".
   **   ~~~   ** Automatic fix is attempted.
   ** Warning ** GetVertices: Roof/Ceiling is upside down! Tilt angle=[180.0], should be near 0, Surface="OFFICE_OPEN_3_2_CEILING", in Zone="OFFICE_OPEN_3_2".
   **   ~~~   ** Automatic fix is attempted.
   ** Warning ** GetVertices: Floor is upside down! Tilt angle=[0.0], should be near 180, Surface="OFFICE_OPEN_3_3_FLOOR", in Zone="OFFICE_OPEN_3_3".
   **   ~~~   ** Automatic fix is attempted.
   ** Warning ** GetVertices: Roof/Ceiling is upside down! Tilt angle=[180.0], should be near 0, Surface="OFFICE_OPEN_3_3_CEILING", in Zone="OFFICE_OPEN_3_3".
   **   ~~~   ** Automatic fix is attempted.
   ** Warning ** GetVertices: Floor is upside down! Tilt angle=[0.0], should be near 180, Surface="OFFICE_OPEN_3_4_FLOOR", in Zone="OFFICE_OPEN_3_4".
   **   ~~~   ** Automatic fix is attempted.
   ** Warning ** GetVertices: Roof/Ceiling is upside down! Tilt angle=[180.0], should be near 0, Surface="OFFICE_OPEN_3_4_CEILING", in Zone="OFFICE_OPEN_3_4".
   **   ~~~   ** Automatic fix is attempted.
   ** Warning ** GetVertices: Floor is upside down! Tilt angle=[0.0], should be near 180, Surface="OFFICE_OPEN_3_5_FLOOR", in Zone="OFFICE_OPEN_3_5".
   **   ~~~   ** Automatic fix is attempted.
   ** Warning ** GetVertices: Roof/Ceiling is upside down! Tilt angle=[180.0], should be near 0, Surface="OFFICE_OPEN_3_5_CEILING", in Zone="OFFICE_OPEN_3_5".
   **   ~~~   ** Automatic fix is attempted.
   ** Warning ** GetVertices: Floor is upside down! Tilt angle=[0.0], should be near 180, Surface="OFFICE_OPEN_3_6_FLOOR", in Zone="OFFICE_OPEN_3_6".
   **   ~~~   ** Automatic fix is attempted.
   ** Warning ** GetVertices: Roof/Ceiling is upside down! Tilt angle=[180.0], should be near 0, Surface="OFFICE_OPEN_3_6_CEILING", in Zone="OFFICE_OPEN_3_6".
   **   ~~~   ** Automatic fix is attempted.
   ** Warning ** GetVertices: Floor is upside down! Tilt angle=[0.0], should be near 180, Surface="OFFICE_OPEN_3_7_FLOOR", in Zone="OFFICE_OPEN_3_7".
   **   ~~~   ** Automatic fix is attempted.
   ** Warning ** GetVertices: Roof/Ceiling is upside down! Tilt angle=[180.0], should be near 0, Surface="OFFICE_OPEN_3_7_CEILING", in Zone="OFFICE_OPEN_3_7".
   **   ~~~   ** Automatic fix is attempted.
   ** Warning ** GetVertices: Floor is upside down! Tilt angle=[0.0], should be near 180, Surface="OFFICE_OPEN_3_8_FLOOR", in Zone="OFFICE_OPEN_3_8".
   **   ~~~   ** Automatic fix is attempted.
   ** Warning ** GetVertices: Roof/Ceiling is upside down! Tilt angle=[180.0], should be near 0, Surface="OFFICE_OPEN_3_8_CEILING", in Zone="OFFICE_OPEN_3_8".
   **   ~~~   ** Automatic fix is attempted.
   ** Warning ** GetVertices: Floor is upside down! Tilt angle=[0.0], should be near 180, Surface="OFFICE_OPEN_3_9_FLOOR", in Zone="OFFICE_OPEN_3_9".
   **   ~~~   ** Automatic fix is attempted.
   ** Warning ** GetVertices: Roof/Ceiling is upside down! Tilt angle=[180.0], should be near 0, Surface="OFFICE_OPEN_3_9_CEILING", in Zone="OFFICE_OPEN_3_9".
   **   ~~~   ** Automatic fix is attempted.
   ** Warning ** GetVertices: Floor is upside down! Tilt angle=[0.0], should be near 180, Surface="OFFICE_OPEN_3_10_FLOOR", in Zone="OFFICE_OPEN_3_10".
   **   ~~~   ** Automatic fix is attempted.
   ** Warning ** GetVertices: Roof/Ceiling is upside down! Tilt angle=[180.0], should be near 0, Surface="OFFICE_OPEN_3_10_CEILING", in Zone="OFFICE_OPEN_3_10".
   **   ~~~   ** Automatic fix is attempted.
   ** Warning ** GetVertices: Floor is upside down! Tilt angle=[0.0], should be near 180, Surface="OFFICE_OPEN_3_11_FLOOR", in Zone="OFFICE_OPEN_3_11".
   **   ~~~   ** Automatic fix is attempted.
   ** Warning ** GetVertices: Roof/Ceiling is upside down! Tilt angle=[180.0], should be near 0, Surface="OFFICE_OPEN_3_11_CEILING", in Zone="OFFICE_OPEN_3_11".
   **   ~~~   ** Automatic fix is attempted.
   ** Warning ** GetVertices: Floor is upside down! Tilt angle=[0.0], should be near 180, Surface="OFFICE_OPEN_3_12_FLOOR", in Zone="OFFICE_OPEN_3_12".
   **   ~~~   ** Automatic fix is attempted.
   ** Warning ** GetVertices: Roof/Ceiling is upside down! Tilt angle=[180.0], should be near 0, Surface="OFFICE_OPEN_3_12_CEILING", in Zone="OFFICE_OPEN_3_12".
   **   ~~~   ** Automatic fix is attempted.
   ** Warning ** GetVertices: Floor is upside down! Tilt angle=[0.0], should be near 180, Surface="OFFICE_OPEN_3_13_FLOOR", in Zone="OFFICE_OPEN_3_13".
   **   ~~~   ** Automatic fix is attempted.
   ** Warning ** GetVertices: Roof/Ceiling is upside down! Tilt angle=[180.0], should be near 0, Surface="OFFICE_OPEN_3_13_CEILING", in Zone="OFFICE_OPEN_3_13".
   **   ~~~   ** Automatic fix is attempted.
   ** Warning ** GetVertices: Floor is upside down! Tilt angle=[0.0], should be near 180, Surface="OFFICE_OPEN_3_14_FLOOR", in Zone="OFFICE_OPEN_3_14".
   **   ~~~   ** Automatic fix is attempted.
   ** Warning ** GetVertices: Roof/Ceiling is upside down! Tilt angle=[180.0], should be near 0, Surface="OFFICE_OPEN_3_14_CEILING", in Zone="OFFICE_OPEN_3_14".
   **   ~~~   ** Automatic fix is attempted.
   ** Warning ** GetVertices: Floor is upside down! Tilt angle=[0.0], should be near 180, Surface="OFFICE_OPEN_3_15_FLOOR", in Zone="OFFICE_OPEN_3_15".
   **   ~~~   ** Automatic fix is attempted.
   ** Warning ** GetVertices: Roof/Ceiling is upside down! Tilt angle=[180.0], should be near 0, Surface="OFFICE_OPEN_3_15_CEILING", in Zone="OFFICE_OPEN_3_15".
   **   ~~~   ** Automatic fix is attempted.
   ** Warning ** GetVertices: Floor is upside down! Tilt angle=[0.0], should be near 180, Surface="OFFICE_OPEN_3_16_FLOOR", in Zone="OFFICE_OPEN_3_16".
   **   ~~~   ** Automatic fix is attempted.
   ** Warning ** GetVertices: Roof/Ceiling is upside down! Tilt angle=[180.0], should be near 0, Surface="OFFICE_OPEN_3_16_CEILING", in Zone="OFFICE_OPEN_3_16".
   **   ~~~   ** Automatic fix is attempted.
   ** Warning ** GetVertices: Floor is upside down! Tilt angle=[0.0], should be near 180, Surface="OFFICE_OPEN_3_17_FLOOR", in Zone="OFFICE_OPEN_3_17".
   **   ~~~   ** Automatic fix is attempted.
   ** Warning ** GetVertices: Roof/Ceiling is upside down! Tilt angle=[180.0], should be near 0, Surface="OFFICE_OPEN_3_17_CEILING", in Zone="OFFICE_OPEN_3_17".
   **   ~~~   ** Automatic fix is attempted.
   ** Warning ** GetVertices: Floor is upside down! Tilt angle=[0.0], should be near 180, Surface="OFFICE_OPEN_3_18_FLOOR", in Zone="OFFICE_OPEN_3_18".
   **   ~~~   ** Automatic fix is attempted.
   ** Warning ** GetVertices: Roof/Ceiling is upside down! Tilt angle=[180.0], should be near 0, Surface="OFFICE_OPEN_3_18_CEILING", in Zone="OFFICE_OPEN_3_18".
   **   ~~~   ** Automatic fix is attempted.
   ** Warning ** GetVertices: Floor is upside down! Tilt angle=[0.0], should be near 180, Surface="OFFICE_OPEN_3_19_FLOOR", in Zone="OFFICE_OPEN_3_19".
   **   ~~~   ** Automatic fix is attempted.
   ** Warning ** GetVertices: Roof/Ceiling is upside down! Tilt angle=[180.0], should be near 0, Surface="OFFICE_OPEN_3_19_CEILING", in Zone="OFFICE_OPEN_3_19".
   **   ~~~   ** Automatic fix is attempted.
   ** Warning ** GetVertices: Floor is upside down! Tilt angle=[0.0], should be near 180, Surface="OFFICE_OPEN_3_20_FLOOR", in Zone="OFFICE_OPEN_3_20".
   **   ~~~   ** Automatic fix is attempted.
   ** Warning ** GetVertices: Roof/Ceiling is upside down! Tilt angle=[180.0], should be near 0, Surface="OFFICE_OPEN_3_20_CEILING", in Zone="OFFICE_OPEN_3_20".
   **   ~~~   ** Automatic fix is attempted.
   ** Warning ** GetVertices: Floor is upside down! Tilt angle=[0.0], should be near 180, Surface="OFFICE_OPEN_3_21_FLOOR", in Zone="OFFICE_OPEN_3_21".
   **   ~~~   ** Automatic fix is attempted.
   ** Warning ** GetVertices: Roof/Ceiling is upside down! Tilt angle=[180.0], should be near 0, Surface="OFFICE_OPEN_3_21_CEILING", in Zone="OFFICE_OPEN_3_21".
   **   ~~~   ** Automatic fix is attempted.
   ** Warning ** GetVertices: Floor is upside down! Tilt angle=[0.0], should be near 180, Surface="OFFICE_OPEN_3_22_FLOOR", in Zone="OFFICE_OPEN_3_22".
   **   ~~~   ** Automatic fix is attempted.
   ** Warning ** GetVertices: Roof/Ceiling is upside down! Tilt angle=[180.0], should be near 0, Surface="OFFICE_OPEN_3_22_CEILING", in Zone="OFFICE_OPEN_3_22".
   **   ~~~   ** Automatic fix is attempted.
   ** Warning ** GetVertices: Floor is upside down! Tilt angle=[0.0], should be near 180, Surface="LOBBY_4_FLOOR", in Zone="LOBBY_4".
   **   ~~~   ** Automatic fix is attempted.
   ** Warning ** GetVertices: Roof/Ceiling is upside down! Tilt angle=[180.0], should be near 0, Surface="LOBBY_4_CEILING", in Zone="LOBBY_4".
   **   ~~~   ** Automatic fix is attempted.
   ** Warning ** GetVertices: Floor is upside down! Tilt angle=[0.0], should be near 180, Surface="CONFERENCE_4_FLOOR", in Zone="CONFERENCE_4".
   **   ~~~   ** Automatic fix is attempted.
   ** Warning ** GetVertices: Roof/Ceiling is upside down! Tilt angle=[180.0], should be near 0, Surface="CONFERENCE_4_CEILING", in Zone="CONFERENCE_4".
   **   ~~~   ** Automatic fix is attempted.
   ** Warning ** GetVertices: Floor is upside down! Tilt angle=[0.0], should be near 180, Surface="BREAK_ROOM_4_FLOOR", in Zone="BREAK_ROOM_4".
   **   ~~~   ** Automatic fix is attempted.
   ** Warning ** GetVertices: Roof/Ceiling is upside down! Tilt angle=[180.0], should be near 0, Surface="BREAK_ROOM_4_CEILING", in Zone="BREAK_ROOM_4".
   **   ~~~   ** Automatic fix is attempted.
   ** Warning ** GetVertices: Floor is upside down! Tilt angle=[0.0], should be near 180, Surface="MECHANICAL_4_FLOOR", in Zone="MECHANICAL_4".
   **   ~~~   ** Automatic fix is attempted.
   ** Warning ** GetVertices: Roof/Ceiling is upside down! Tilt angle=[180.0], should be near 0, Surface="MECHANICAL_4_CEILING", in Zone="MECHANICAL_4".
   **   ~~~   ** Automatic fix is attempted.
   ** Warning ** GetVertices: Floor is upside down! Tilt angle=[0.0], should be near 180, Surface="OFFICE_OPEN_4_FLOOR", in Zone="OFFICE_OPEN_4".
   **   ~~~   ** Automatic fix is attempted.
   ** Warning ** GetVertices: Roof/Ceiling is upside down! Tilt angle=[180.0], should be near 0, Surface="OFFICE_OPEN_4_CEILING", in Zone="OFFICE_OPEN_4".
   **   ~~~   ** Automatic fix is attempted.
   ** Warning ** GetVertices: Floor is upside down! Tilt angle=[0.0], should be near 180, Surface="OFFICE_PRIVATE_4_FLOOR", in Zone="OFFICE_PRIVATE_4".
   **   ~~~   ** Automatic fix is attempted.
   ** Warning ** GetVertices: Roof/Ceiling is upside down! Tilt angle=[180.0], should be near 0, Surface="OFFICE_PRIVATE_4_CEILING", in Zone="OFFICE_PRIVATE_4".
   **   ~~~   ** Automatic fix is attempted.
   ** Warning ** GetVertices: Floor is upside down! Tilt angle=[0.0], should be near 180, Surface="STORAGE_4_FLOOR", in Zone="STORAGE_4".
   **   ~~~   ** Automatic fix is attempted.
   ** Warning ** GetVertices: Roof/Ceiling is upside down! Tilt angle=[180.0], should be near 0, Surface="STORAGE_4_CEILING", in Zone="STORAGE_4".
   **   ~~~   ** Automatic fix is attempted.
   ** Warning ** GetVertices: Floor is upside down! Tilt angle=[0.0], should be near 180, Surface="OFFICE_OPEN_4_2_FLOOR", in Zone="OFFICE_OPEN_4_2".
   **   ~~~   ** Automatic fix is attempted.
   ** Warning ** GetVertices: Roof/Ceiling is upside down! Tilt angle=[180.0], should be near 0, Surface="OFFICE_OPEN_4_2_CEILING", in Zone="OFFICE_OPEN_4_2".
   **   ~~~   ** Automatic fix is attempted.
   ** Warning ** GetVertices: Floor is upside down! Tilt angle=[0.0], should be near 180, Surface="OFFICE_OPEN_4_3_FLOOR", in Zone="OFFICE_OPEN_4_3".
   **   ~~~   ** Automatic fix is attempted.
   ** Warning ** GetVertices: Roof/Ceiling is upside down! Tilt angle=[180.0], should be near 0, Surface="OFFICE_OPEN_4_3_CEILING", in Zone="OFFICE_OPEN_4_3".
   **   ~~~   ** Automatic fix is attempted.
   ** Warning ** GetVertices: Floor is upside down! Tilt angle=[0.0], should be near 180, Surface="OFFICE_OPEN_4_4_FLOOR", in Zone="OFFICE_OPEN_4_4".
   **   ~~~   ** Automatic fix is attempted.
   ** Warning ** GetVertices: Roof/Ceiling is upside down! Tilt angle=[180.0], should be near 0, Surface="OFFICE_OPEN_4_4_CEILING", in Zone="OFFICE_OPEN_4_4".
   **   ~~~   ** Automatic fix is attempted.
   ** Warning ** GetVertices: Floor is upside down! Tilt angle=[0.0], should be near 180, Surface="OFFICE_OPEN_4_5_FLOOR", in Zone="OFFICE_OPEN_4_5".
   **   ~~~   ** Automatic fix is attempted.
   ** Warning ** GetVertices: Roof/Ceiling is upside down! Tilt angle=[180.0], should be near 0, Surface="OFFICE_OPEN_4_5_CEILING", in Zone="OFFICE_OPEN_4_5".
   **   ~~~   ** Automatic fix is attempted.
   ** Warning ** GetVertices: Floor is upside down! Tilt angle=[0.0], should be near 180, Surface="OFFICE_OPEN_4_6_FLOOR", in Zone="OFFICE_OPEN_4_6".
   **   ~~~   ** Automatic fix is attempted.
   ** Warning ** GetVertices: Roof/Ceiling is upside down! Tilt angle=[180.0], should be near 0, Surface="OFFICE_OPEN_4_6_CEILING", in Zone="OFFICE_OPEN_4_6".
   **   ~~~   ** Automatic fix is attempted.
   ** Warning ** GetVertices: Floor is upside down! Tilt angle=[0.0], should be near 180, Surface="OFFICE_OPEN_4_7_FLOOR", in Zone="OFFICE_OPEN_4_7".
   **   ~~~   ** Automatic fix is attempted.
   ** Warning ** GetVertices: Roof/Ceiling is upside down! Tilt angle=[180.0], should be near 0, Surface="OFFICE_OPEN_4_7_CEILING", in Zone="OFFICE_OPEN_4_7".
   **   ~~~   ** Automatic fix is attempted.
   ** Warning ** GetVertices: Floor is upside down! Tilt angle=[0.0], should be near 180, Surface="OFFICE_OPEN_4_8_FLOOR", in Zone="OFFICE_OPEN_4_8".
   **   ~~~   ** Automatic fix is attempted.
   ** Warning ** GetVertices: Roof/Ceiling is upside down! Tilt angle=[180.0], should be near 0, Surface="OFFICE_OPEN_4_8_CEILING", in Zone="OFFICE_OPEN_4_8".
   **   ~~~   ** Automatic fix is attempted.
   ** Warning ** GetVertices: Floor is upside down! Tilt angle=[0.0], should be near 180, Surface="OFFICE_OPEN_4_9_FLOOR", in Zone="OFFICE_OPEN_4_9".
   **   ~~~   ** Automatic fix is attempted.
   ** Warning ** GetVertices: Roof/Ceiling is upside down! Tilt angle=[180.0], should be near 0, Surface="OFFICE_OPEN_4_9_CEILING", in Zone="OFFICE_OPEN_4_9".
   **   ~~~   ** Automatic fix is attempted.
   ** Warning ** GetVertices: Floor is upside down! Tilt angle=[0.0], should be near 180, Surface="OFFICE_OPEN_4_10_FLOOR", in Zone="OFFICE_OPEN_4_10".
   **   ~~~   ** Automatic fix is attempted.
   ** Warning ** GetVertices: Roof/Ceiling is upside down! Tilt angle=[180.0], should be near 0, Surface="OFFICE_OPEN_4_10_CEILING", in Zone="OFFICE_OPEN_4_10".
   **   ~~~   ** Automatic fix is attempted.
   ** Warning ** GetVertices: Floor is upside down! Tilt angle=[0.0], should be near 180, Surface="OFFICE_OPEN_4_11_FLOOR", in Zone="OFFICE_OPEN_4_11".
   **   ~~~   ** Automatic fix is attempted.
   ** Warning ** GetVertices: Roof/Ceiling is upside down! Tilt angle=[180.0], should be near 0, Surface="OFFICE_OPEN_4_11_CEILING", in Zone="OFFICE_OPEN_4_11".
   **   ~~~   ** Automatic fix is attempted.
   ** Warning ** GetVertices: Floor is upside down! Tilt angle=[0.0], should be near 180, Surface="OFFICE_OPEN_4_12_FLOOR", in Zone="OFFICE_OPEN_4_12".
   **   ~~~   ** Automatic fix is attempted.
   ** Warning ** GetVertices: Roof/Ceiling is upside down! Tilt angle=[180.0], should be near 0, Surface="OFFICE_OPEN_4_12_CEILING", in Zone="OFFICE_OPEN_4_12".
   **   ~~~   ** Automatic fix is attempted.
   ** Warning ** GetVertices: Floor is upside down! Tilt angle=[0.0], should be near 180, Surface="OFFICE_OPEN_4_13_FLOOR", in Zone="OFFICE_OPEN_4_13".
   **   ~~~   ** Automatic fix is attempted.
   ** Warning ** GetVertices: Roof/Ceiling is upside down! Tilt angle=[180.0], should be near 0, Surface="OFFICE_OPEN_4_13_CEILING", in Zone="OFFICE_OPEN_4_13".
   **   ~~~   ** Automatic fix is attempted.
   ** Warning ** GetVertices: Floor is upside down! Tilt angle=[0.0], should be near 180, Surface="OFFICE_OPEN_4_14_FLOOR", in Zone="OFFICE_OPEN_4_14".
   **   ~~~   ** Automatic fix is attempted.
   ** Warning ** GetVertices: Roof/Ceiling is upside down! Tilt angle=[180.0], should be near 0, Surface="OFFICE_OPEN_4_14_CEILING", in Zone="OFFICE_OPEN_4_14".
   **   ~~~   ** Automatic fix is attempted.
   ** Warning ** GetVertices: Floor is upside down! Tilt angle=[0.0], should be near 180, Surface="OFFICE_OPEN_4_15_FLOOR", in Zone="OFFICE_OPEN_4_15".
   **   ~~~   ** Automatic fix is attempted.
   ** Warning ** GetVertices: Roof/Ceiling is upside down! Tilt angle=[180.0], should be near 0, Surface="OFFICE_OPEN_4_15_CEILING", in Zone="OFFICE_OPEN_4_15".
   **   ~~~   ** Automatic fix is attempted.
   ** Warning ** GetVertices: Floor is upside down! Tilt angle=[0.0], should be near 180, Surface="OFFICE_OPEN_4_16_FLOOR", in Zone="OFFICE_OPEN_4_16".
   **   ~~~   ** Automatic fix is attempted.
   ** Warning ** GetVertices: Roof/Ceiling is upside down! Tilt angle=[180.0], should be near 0, Surface="OFFICE_OPEN_4_16_CEILING", in Zone="OFFICE_OPEN_4_16".
   **   ~~~   ** Automatic fix is attempted.
   ** Warning ** GetVertices: Floor is upside down! Tilt angle=[0.0], should be near 180, Surface="OFFICE_OPEN_4_17_FLOOR", in Zone="OFFICE_OPEN_4_17".
   **   ~~~   ** Automatic fix is attempted.
   ** Warning ** GetVertices: Roof/Ceiling is upside down! Tilt angle=[180.0], should be near 0, Surface="OFFICE_OPEN_4_17_CEILING", in Zone="OFFICE_OPEN_4_17".
   **   ~~~   ** Automatic fix is attempted.
   ** Warning ** GetVertices: Floor is upside down! Tilt angle=[0.0], should be near 180, Surface="OFFICE_OPEN_4_18_FLOOR", in Zone="OFFICE_OPEN_4_18".
   **   ~~~   ** Automatic fix is attempted.
   ** Warning ** GetVertices: Roof/Ceiling is upside down! Tilt angle=[180.0], should be near 0, Surface="OFFICE_OPEN_4_18_CEILING", in Zone="OFFICE_OPEN_4_18".
   **   ~~~   ** Automatic fix is attempted.
   ** Warning ** GetVertices: Floor is upside down! Tilt angle=[0.0], should be near 180, Surface="OFFICE_OPEN_4_19_FLOOR", in Zone="OFFICE_OPEN_4_19".
   **   ~~~   ** Automatic fix is attempted.
   ** Warning ** GetVertices: Roof/Ceiling is upside down! Tilt angle=[180.0], should be near 0, Surface="OFFICE_OPEN_4_19_CEILING", in Zone="OFFICE_OPEN_4_19".
   **   ~~~   ** Automatic fix is attempted.
   ** Warning ** GetVertices: Floor is upside down! Tilt angle=[0.0], should be near 180, Surface="OFFICE_OPEN_4_20_FLOOR", in Zone="OFFICE_OPEN_4_20".
   **   ~~~   ** Automatic fix is attempted.
   ** Warning ** GetVertices: Roof/Ceiling is upside down! Tilt angle=[180.0], should be near 0, Surface="OFFICE_OPEN_4_20_CEILING", in Zone="OFFICE_OPEN_4_20".
   **   ~~~   ** Automatic fix is attempted.
   ** Warning ** GetVertices: Floor is upside down! Tilt angle=[0.0], should be near 180, Surface="OFFICE_OPEN_4_21_FLOOR", in Zone="OFFICE_OPEN_4_21".
   **   ~~~   ** Automatic fix is attempted.
   ** Warning ** GetVertices: Roof/Ceiling is upside down! Tilt angle=[180.0], should be near 0, Surface="OFFICE_OPEN_4_21_CEILING", in Zone="OFFICE_OPEN_4_21".
   **   ~~~   ** Automatic fix is attempted.
   ** Warning ** GetVertices: Floor is upside down! Tilt angle=[0.0], should be near 180, Surface="OFFICE_OPEN_4_22_FLOOR", in Zone="OFFICE_OPEN_4_22".
   **   ~~~   ** Automatic fix is attempted.
   ** Warning ** GetVertices: Roof/Ceiling is upside down! Tilt angle=[180.0], should be near 0, Surface="OFFICE_OPEN_4_22_CEILING", in Zone="OFFICE_OPEN_4_22".
   **   ~~~   ** Automatic fix is attempted.
   ** Warning ** GetVertices: Floor is upside down! Tilt angle=[0.0], should be near 180, Surface="OFFICE_OPEN_4_23_FLOOR", in Zone="OFFICE_OPEN_4_23".
   **   ~~~   ** Automatic fix is attempted.
   ** Warning ** GetVertices: Roof/Ceiling is upside down! Tilt angle=[180.0], should be near 0, Surface="OFFICE_OPEN_4_23_CEILING", in Zone="OFFICE_OPEN_4_23".
   **   ~~~   ** Automatic fix is attempted.
   ** Warning ** Indicated Zone Volume <= 0.0 for Zone=LOBBY_0
   **   ~~~   ** The calculated Zone Volume was=-199.21
   **   ~~~   ** The simulation will continue with the Zone Volume set to 10.0 m3. 
   **   ~~~   ** ...use Output:Diagnostics,DisplayExtraWarnings; to show more details on individual zones.
   ** Warning ** Indicated Zone Volume <= 0.0 for Zone=CONFERENCE_0
   **   ~~~   ** The calculated Zone Volume was=-48.17
   **   ~~~   ** The simulation will continue with the Zone Volume set to 10.0 m3. 
   **   ~~~   ** ...use Output:Diagnostics,DisplayExtraWarnings; to show more details on individual zones.
   ** Warning ** Indicated Zone Volume <= 0.0 for Zone=BREAK_ROOM_0
   **   ~~~   ** The calculated Zone Volume was=-28.41
   **   ~~~   ** The simulation will continue with the Zone Volume set to 10.0 m3. 
   **   ~~~   ** ...use Output:Diagnostics,DisplayExtraWarnings; to show more details on individual zones.
   ** Warning ** Indicated Zone Volume <= 0.0 for Zone=MECHANICAL_0
   **   ~~~   ** The calculated Zone Volume was=-29.33
   **   ~~~   ** The simulation will continue with the Zone Volume set to 10.0 m3. 
   **   ~~~   ** ...use Output:Diagnostics,DisplayExtraWarnings; to show more details on individual zones.
   ** Warning ** Indicated Zone Volume <= 0.0 for Zone=OFFICE_OPEN_0
   **   ~~~   ** The calculated Zone Volume was=-135.04
   **   ~~~   ** The simulation will continue with the Zone Volume set to 10.0 m3. 
   **   ~~~   ** ...use Output:Diagnostics,DisplayExtraWarnings; to show more details on individual zones.
   ** Warning ** Indicated Zone Volume <= 0.0 for Zone=OFFICE_PRIVATE_0
   **   ~~~   ** The calculated Zone Volume was=-181.01
   **   ~~~   ** The simulation will continue with the Zone Volume set to 10.0 m3. 
   **   ~~~   ** ...use Output:Diagnostics,DisplayExtraWarnings; to show more details on individual zones.
   ** Warning ** Indicated Zone Volume <= 0.0 for Zone=STORAGE_0
   **   ~~~   ** The calculated Zone Volume was=-183.02
   **   ~~~   ** The simulation will continue with the Zone Volume set to 10.0 m3. 
   **   ~~~   ** ...use Output:Diagnostics,DisplayExtraWarnings; to show more details on individual zones.
   ** Warning ** Indicated Zone Volume <= 0.0 for Zone=OFFICE_OPEN_0_2
   **   ~~~   ** The calculated Zone Volume was=-157.76
   **   ~~~   ** The simulation will continue with the Zone Volume set to 10.0 m3. 
   **   ~~~   ** ...use Output:Diagnostics,DisplayExtraWarnings; to show more details on individual zones.
   ** Warning ** Indicated Zone Volume <= 0.0 for Zone=OFFICE_OPEN_0_3
   **   ~~~   ** The calculated Zone Volume was=-183.94
   **   ~~~   ** The simulation will continue with the Zone Volume set to 10.0 m3. 
   **   ~~~   ** ...use Output:Diagnostics,DisplayExtraWarnings; to show more details on individual zones.
   ** Warning ** Indicated Zone Volume <= 0.0 for Zone=OFFICE_OPEN_0_4
   **   ~~~   ** The calculated Zone Volume was=-168.00
   **   ~~~   ** The simulation will continue with the Zone Volume set to 10.0 m3. 
   **   ~~~   ** ...use Output:Diagnostics,DisplayExtraWarnings; to show more details on individual zones.
   ** Warning ** Indicated Zone Volume <= 0.0 for Zone=OFFICE_OPEN_0_5
   **   ~~~   ** The calculated Zone Volume was=-159.15
   **   ~~~   ** The simulation will continue with the Zone Volume set to 10.0 m3. 
   **   ~~~   ** ...use Output:Diagnostics,DisplayExtraWarnings; to show more details on individual zones.
   ** Warning ** Indicated Zone Volume <= 0.0 for Zone=OFFICE_OPEN_0_6
   **   ~~~   ** The calculated Zone Volume was=-187.27
   **   ~~~   ** The simulation will continue with the Zone Volume set to 10.0 m3. 
   **   ~~~   ** ...use Output:Diagnostics,DisplayExtraWarnings; to show more details on individual zones.
   ** Warning ** Indicated Zone Volume <= 0.0 for Zone=OFFICE_OPEN_0_7
   **   ~~~   ** The calculated Zone Volume was=-24.76
   **   ~~~   ** The simulation will continue with the Zone Volume set to 10.0 m3. 
   **   ~~~   ** ...use Output:Diagnostics,DisplayExtraWarnings; to show more details on individual zones.
   ** Warning ** Indicated Zone Volume <= 0.0 for Zone=OFFICE_OPEN_0_8
   **   ~~~   ** The calculated Zone Volume was=-178.45
   **   ~~~   ** The simulation will continue with the Zone Volume set to 10.0 m3. 
   **   ~~~   ** ...use Output:Diagnostics,DisplayExtraWarnings; to show more details on individual zones.
   ** Warning ** Indicated Zone Volume <= 0.0 for Zone=OFFICE_OPEN_0_9
   **   ~~~   ** The calculated Zone Volume was=-183.11
   **   ~~~   ** The simulation will continue with the Zone Volume set to 10.0 m3. 
   **   ~~~   ** ...use Output:Diagnostics,DisplayExtraWarnings; to show more details on individual zones.
   ** Warning ** Indicated Zone Volume <= 0.0 for Zone=OFFICE_OPEN_0_10
   **   ~~~   ** The calculated Zone Volume was=-187.26
   **   ~~~   ** The simulation will continue with the Zone Volume set to 10.0 m3. 
   **   ~~~   ** ...use Output:Diagnostics,DisplayExtraWarnings; to show more details on individual zones.
   ** Warning ** Indicated Zone Volume <= 0.0 for Zone=OFFICE_OPEN_0_11
   **   ~~~   ** The calculated Zone Volume was=-187.26
   **   ~~~   ** The simulation will continue with the Zone Volume set to 10.0 m3. 
   **   ~~~   ** ...use Output:Diagnostics,DisplayExtraWarnings; to show more details on individual zones.
   ** Warning ** Indicated Zone Volume <= 0.0 for Zone=OFFICE_OPEN_0_12
   **   ~~~   ** The calculated Zone Volume was=-187.26
   **   ~~~   ** The simulation will continue with the Zone Volume set to 10.0 m3. 
   **   ~~~   ** ...use Output:Diagnostics,DisplayExtraWarnings; to show more details on individual zones.
   ** Warning ** Indicated Zone Volume <= 0.0 for Zone=OFFICE_OPEN_0_13
   **   ~~~   ** The calculated Zone Volume was=-185.97
   **   ~~~   ** The simulation will continue with the Zone Volume set to 10.0 m3. 
   **   ~~~   ** ...use Output:Diagnostics,DisplayExtraWarnings; to show more details on individual zones.
   ** Warning ** Indicated Zone Volume <= 0.0 for Zone=OFFICE_OPEN_0_14
   **   ~~~   ** The calculated Zone Volume was=-169.08
   **   ~~~   ** The simulation will continue with the Zone Volume set to 10.0 m3. 
   **   ~~~   ** ...use Output:Diagnostics,DisplayExtraWarnings; to show more details on individual zones.
   ** Warning ** Indicated Zone Volume <= 0.0 for Zone=OFFICE_OPEN_0_15
   **   ~~~   ** The calculated Zone Volume was=-187.26
   **   ~~~   ** The simulation will continue with the Zone Volume set to 10.0 m3. 
   **   ~~~   ** ...use Output:Diagnostics,DisplayExtraWarnings; to show more details on individual zones.
   ** Warning ** Indicated Zone Volume <= 0.0 for Zone=OFFICE_OPEN_0_16
   **   ~~~   ** The calculated Zone Volume was=-187.27
   **   ~~~   ** The simulation will continue with the Zone Volume set to 10.0 m3. 
   **   ~~~   ** ...use Output:Diagnostics,DisplayExtraWarnings; to show more details on individual zones.
   ** Warning ** Indicated Zone Volume <= 0.0 for Zone=OFFICE_OPEN_0_17
   **   ~~~   ** The calculated Zone Volume was=-187.26
   **   ~~~   ** The simulation will continue with the Zone Volume set to 10.0 m3. 
   **   ~~~   ** ...use Output:Diagnostics,DisplayExtraWarnings; to show more details on individual zones.
   ** Warning ** Indicated Zone Volume <= 0.0 for Zone=OFFICE_OPEN_0_18
   **   ~~~   ** The calculated Zone Volume was=-182.08
   **   ~~~   ** The simulation will continue with the Zone Volume set to 10.0 m3. 
   **   ~~~   ** ...use Output:Diagnostics,DisplayExtraWarnings; to show more details on individual zones.
   ** Warning ** Indicated Zone Volume <= 0.0 for Zone=OFFICE_OPEN_0_19
   **   ~~~   ** The calculated Zone Volume was=-153.39
   **   ~~~   ** The simulation will continue with the Zone Volume set to 10.0 m3. 
   **   ~~~   ** ...use Output:Diagnostics,DisplayExtraWarnings; to show more details on individual zones.
   ** Warning ** Indicated Zone Volume <= 0.0 for Zone=OFFICE_OPEN_0_20
   **   ~~~   ** The calculated Zone Volume was=-183.61
   **   ~~~   ** The simulation will continue with the Zone Volume set to 10.0 m3. 
   **   ~~~   ** ...use Output:Diagnostics,DisplayExtraWarnings; to show more details on individual zones.
   ** Warning ** Indicated Zone Volume <= 0.0 for Zone=OFFICE_OPEN_0_21
   **   ~~~   ** The calculated Zone Volume was=-180.76
   **   ~~~   ** The simulation will continue with the Zone Volume set to 10.0 m3. 
   **   ~~~   ** ...use Output:Diagnostics,DisplayExtraWarnings; to show more details on individual zones.
   ** Warning ** Indicated Zone Volume <= 0.0 for Zone=OFFICE_OPEN_0_22
   **   ~~~   ** The calculated Zone Volume was=-177.92
   **   ~~~   ** The simulation will continue with the Zone Volume set to 10.0 m3. 
   **   ~~~   ** ...use Output:Diagnostics,DisplayExtraWarnings; to show more details on individual zones.
   ** Warning ** Indicated Zone Volume <= 0.0 for Zone=OFFICE_OPEN_0_23
   **   ~~~   ** The calculated Zone Volume was=-166.71
   **   ~~~   ** The simulation will continue with the Zone Volume set to 10.0 m3. 
   **   ~~~   ** ...use Output:Diagnostics,DisplayExtraWarnings; to show more details on individual zones.
   ** Warning ** Indicated Zone Volume <= 0.0 for Zone=LOBBY_1
   **   ~~~   ** The calculated Zone Volume was=-176.74
   **   ~~~   ** The simulation will continue with the Zone Volume set to 10.0 m3. 
   **   ~~~   ** ...use Output:Diagnostics,DisplayExtraWarnings; to show more details on individual zones.
   ** Warning ** Indicated Zone Volume <= 0.0 for Zone=CONFERENCE_1
   **   ~~~   ** The calculated Zone Volume was=-43.34
   **   ~~~   ** The simulation will continue with the Zone Volume set to 10.0 m3. 
   **   ~~~   ** ...use Output:Diagnostics,DisplayExtraWarnings; to show more details on individual zones.
   ** Warning ** Indicated Zone Volume <= 0.0 for Zone=BREAK_ROOM_1
   **   ~~~   ** The calculated Zone Volume was=-52.26
   **   ~~~   ** The simulation will continue with the Zone Volume set to 10.0 m3. 
   **   ~~~   ** ...use Output:Diagnostics,DisplayExtraWarnings; to show more details on individual zones.
   ** Warning ** Indicated Zone Volume <= 0.0 for Zone=MECHANICAL_1
   **   ~~~   ** The calculated Zone Volume was=-83.95
   **   ~~~   ** The simulation will continue with the Zone Volume set to 10.0 m3. 
   **   ~~~   ** ...use Output:Diagnostics,DisplayExtraWarnings; to show more details on individual zones.
   ** Warning ** Indicated Zone Volume <= 0.0 for Zone=OFFICE_OPEN_1
   **   ~~~   ** The calculated Zone Volume was=-168.90
   **   ~~~   ** The simulation will continue with the Zone Volume set to 10.0 m3. 
   **   ~~~   ** ...use Output:Diagnostics,DisplayExtraWarnings; to show more details on individual zones.
   ** Warning ** Indicated Zone Volume <= 0.0 for Zone=OFFICE_PRIVATE_1
   **   ~~~   ** The calculated Zone Volume was=-181.31
   **   ~~~   ** The simulation will continue with the Zone Volume set to 10.0 m3. 
   **   ~~~   ** ...use Output:Diagnostics,DisplayExtraWarnings; to show more details on individual zones.
   ** Warning ** Indicated Zone Volume <= 0.0 for Zone=STORAGE_1
   **   ~~~   ** The calculated Zone Volume was=-183.02
   **   ~~~   ** The simulation will continue with the Zone Volume set to 10.0 m3. 
   **   ~~~   ** ...use Output:Diagnostics,DisplayExtraWarnings; to show more details on individual zones.
   ** Warning ** Indicated Zone Volume <= 0.0 for Zone=OFFICE_OPEN_1_2
   **   ~~~   ** The calculated Zone Volume was=-184.72
   **   ~~~   ** The simulation will continue with the Zone Volume set to 10.0 m3. 
   **   ~~~   ** ...use Output:Diagnostics,DisplayExtraWarnings; to show more details on individual zones.
   ** Warning ** Indicated Zone Volume <= 0.0 for Zone=OFFICE_OPEN_1_3
   **   ~~~   ** The calculated Zone Volume was=-185.32
   **   ~~~   ** The simulation will continue with the Zone Volume set to 10.0 m3. 
   **   ~~~   ** ...use Output:Diagnostics,DisplayExtraWarnings; to show more details on individual zones.
   ** Warning ** Indicated Zone Volume <= 0.0 for Zone=OFFICE_OPEN_1_4
   **   ~~~   ** The calculated Zone Volume was=-147.14
   **   ~~~   ** The simulation will continue with the Zone Volume set to 10.0 m3. 
   **   ~~~   ** ...use Output:Diagnostics,DisplayExtraWarnings; to show more details on individual zones.
   ** Warning ** Indicated Zone Volume <= 0.0 for Zone=OFFICE_OPEN_1_5
   **   ~~~   ** The calculated Zone Volume was=-181.49
   **   ~~~   ** The simulation will continue with the Zone Volume set to 10.0 m3. 
   **   ~~~   ** ...use Output:Diagnostics,DisplayExtraWarnings; to show more details on individual zones.
   ** Warning ** Indicated Zone Volume <= 0.0 for Zone=OFFICE_OPEN_1_6
   **   ~~~   ** The calculated Zone Volume was=-169.87
   **   ~~~   ** The simulation will continue with the Zone Volume set to 10.0 m3. 
   **   ~~~   ** ...use Output:Diagnostics,DisplayExtraWarnings; to show more details on individual zones.
   ** Warning ** Indicated Zone Volume <= 0.0 for Zone=OFFICE_OPEN_1_7
   **   ~~~   ** The calculated Zone Volume was=-187.26
   **   ~~~   ** The simulation will continue with the Zone Volume set to 10.0 m3. 
   **   ~~~   ** ...use Output:Diagnostics,DisplayExtraWarnings; to show more details on individual zones.
   ** Warning ** Indicated Zone Volume <= 0.0 for Zone=OFFICE_OPEN_1_8
   **   ~~~   ** The calculated Zone Volume was=-186.81
   **   ~~~   ** The simulation will continue with the Zone Volume set to 10.0 m3. 
   **   ~~~   ** ...use Output:Diagnostics,DisplayExtraWarnings; to show more details on individual zones.
   ** Warning ** Indicated Zone Volume <= 0.0 for Zone=OFFICE_OPEN_1_9
   **   ~~~   ** The calculated Zone Volume was=-166.03
   **   ~~~   ** The simulation will continue with the Zone Volume set to 10.0 m3. 
   **   ~~~   ** ...use Output:Diagnostics,DisplayExtraWarnings; to show more details on individual zones.
   ** Warning ** Indicated Zone Volume <= 0.0 for Zone=OFFICE_OPEN_1_10
   **   ~~~   ** The calculated Zone Volume was=-148.98
   **   ~~~   ** The simulation will continue with the Zone Volume set to 10.0 m3. 
   **   ~~~   ** ...use Output:Diagnostics,DisplayExtraWarnings; to show more details on individual zones.
   ** Warning ** Indicated Zone Volume <= 0.0 for Zone=OFFICE_OPEN_1_11
   **   ~~~   ** The calculated Zone Volume was=-71.98
   **   ~~~   ** The simulation will continue with the Zone Volume set to 10.0 m3. 
   **   ~~~   ** ...use Output:Diagnostics,DisplayExtraWarnings; to show more details on individual zones.
   ** Warning ** Indicated Zone Volume <= 0.0 for Zone=OFFICE_OPEN_1_12
   **   ~~~   ** The calculated Zone Volume was=-187.26
   **   ~~~   ** The simulation will continue with the Zone Volume set to 10.0 m3. 
   **   ~~~   ** ...use Output:Diagnostics,DisplayExtraWarnings; to show more details on individual zones.
   ** Warning ** Indicated Zone Volume <= 0.0 for Zone=OFFICE_OPEN_1_13
   **   ~~~   ** The calculated Zone Volume was=-185.97
   **   ~~~   ** The simulation will continue with the Zone Volume set to 10.0 m3. 
   **   ~~~   ** ...use Output:Diagnostics,DisplayExtraWarnings; to show more details on individual zones.
   ** Warning ** Indicated Zone Volume <= 0.0 for Zone=OFFICE_OPEN_1_14
   **   ~~~   ** The calculated Zone Volume was=-152.90
   **   ~~~   ** The simulation will continue with the Zone Volume set to 10.0 m3. 
   **   ~~~   ** ...use Output:Diagnostics,DisplayExtraWarnings; to show more details on individual zones.
   ** Warning ** Indicated Zone Volume <= 0.0 for Zone=OFFICE_OPEN_1_15
   **   ~~~   ** The calculated Zone Volume was=-187.26
   **   ~~~   ** The simulation will continue with the Zone Volume set to 10.0 m3. 
   **   ~~~   ** ...use Output:Diagnostics,DisplayExtraWarnings; to show more details on individual zones.
   ** Warning ** Indicated Zone Volume <= 0.0 for Zone=OFFICE_OPEN_1_16
   **   ~~~   ** The calculated Zone Volume was=-187.27
   **   ~~~   ** The simulation will continue with the Zone Volume set to 10.0 m3. 
   **   ~~~   ** ...use Output:Diagnostics,DisplayExtraWarnings; to show more details on individual zones.
   ** Warning ** Indicated Zone Volume <= 0.0 for Zone=OFFICE_OPEN_1_17
   **   ~~~   ** The calculated Zone Volume was=-187.26
   **   ~~~   ** The simulation will continue with the Zone Volume set to 10.0 m3. 
   **   ~~~   ** ...use Output:Diagnostics,DisplayExtraWarnings; to show more details on individual zones.
   ** Warning ** Indicated Zone Volume <= 0.0 for Zone=OFFICE_OPEN_1_18
   **   ~~~   ** The calculated Zone Volume was=-182.08
   **   ~~~   ** The simulation will continue with the Zone Volume set to 10.0 m3. 
   **   ~~~   ** ...use Output:Diagnostics,DisplayExtraWarnings; to show more details on individual zones.
   ** Warning ** Indicated Zone Volume <= 0.0 for Zone=OFFICE_OPEN_1_19
   **   ~~~   ** The calculated Zone Volume was=-85.61
   **   ~~~   ** The simulation will continue with the Zone Volume set to 10.0 m3. 
[...]
   **   ~~~   ** ... Operation at low ambient temperatures may require special performance curves.
   ** Warning ** CalcDoe2DXCoil: Coil:Cooling:DX:SingleSpeed "OFFICE_OPEN_2_5_Z69_COOLINGCOILDX" - Air-cooled condenser inlet dry-bulb temperature below 0 C. Outdoor dry-bulb temperature = -0.15
   **   ~~~   **  ... Occurrence info = YEAR ROUND RUN PERIOD, 01/19 14:00 - 14:15
   **   ~~~   ** ... Operation at low ambient temperatures may require special performance curves.
   ** Warning ** CalcDoe2DXCoil: Coil:Cooling:DX:SingleSpeed "OFFICE_OPEN_2_6_Z70_COOLINGCOILDX" - Air-cooled condenser inlet dry-bulb temperature below 0 C. Outdoor dry-bulb temperature = -0.15
   **   ~~~   **  ... Occurrence info = YEAR ROUND RUN PERIOD, 01/19 14:00 - 14:15
   **   ~~~   ** ... Operation at low ambient temperatures may require special performance curves.
   ** Warning ** CalcDoe2DXCoil: Coil:Cooling:DX:SingleSpeed "OFFICE_OPEN_2_7_Z71_COOLINGCOILDX" - Air-cooled condenser inlet dry-bulb temperature below 0 C. Outdoor dry-bulb temperature = -0.15
   **   ~~~   **  ... Occurrence info = YEAR ROUND RUN PERIOD, 01/19 14:00 - 14:15
   **   ~~~   ** ... Operation at low ambient temperatures may require special performance curves.
   ** Warning ** CalcDoe2DXCoil: Coil:Cooling:DX:SingleSpeed "OFFICE_OPEN_2_11_Z75_COOLINGCOILDX" - Air-cooled condenser inlet dry-bulb temperature below 0 C. Outdoor dry-bulb temperature = -0.15
   **   ~~~   **  ... Occurrence info = YEAR ROUND RUN PERIOD, 01/19 14:00 - 14:15
   **   ~~~   ** ... Operation at low ambient temperatures may require special performance curves.
   ** Warning ** CalcDoe2DXCoil: Coil:Cooling:DX:SingleSpeed "OFFICE_OPEN_2_12_Z76_COOLINGCOILDX" - Air-cooled condenser inlet dry-bulb temperature below 0 C. Outdoor dry-bulb temperature = -0.15
   **   ~~~   **  ... Occurrence info = YEAR ROUND RUN PERIOD, 01/19 14:00 - 14:15
   **   ~~~   ** ... Operation at low ambient temperatures may require special performance curves.
   ** Warning ** CalcDoe2DXCoil: Coil:Cooling:DX:SingleSpeed "OFFICE_OPEN_2_13_Z77_COOLINGCOILDX" - Air-cooled condenser inlet dry-bulb temperature below 0 C. Outdoor dry-bulb temperature = -0.15
   **   ~~~   **  ... Occurrence info = YEAR ROUND RUN PERIOD, 01/19 14:00 - 14:15
   **   ~~~   ** ... Operation at low ambient temperatures may require special performance curves.
   ** Warning ** CalcDoe2DXCoil: Coil:Cooling:DX:SingleSpeed "OFFICE_OPEN_2_14_Z78_COOLINGCOILDX" - Air-cooled condenser inlet dry-bulb temperature below 0 C. Outdoor dry-bulb temperature = -0.15
   **   ~~~   **  ... Occurrence info = YEAR ROUND RUN PERIOD, 01/19 14:00 - 14:15
   **   ~~~   ** ... Operation at low ambient temperatures may require special performance curves.
   ** Warning ** CalcDoe2DXCoil: Coil:Cooling:DX:SingleSpeed "OFFICE_OPEN_2_15_Z79_COOLINGCOILDX" - Air-cooled condenser inlet dry-bulb temperature below 0 C. Outdoor dry-bulb temperature = -0.15
   **   ~~~   **  ... Occurrence info = YEAR ROUND RUN PERIOD, 01/19 14:00 - 14:15
   **   ~~~   ** ... Operation at low ambient temperatures may require special performance curves.
   ** Warning ** CalcDoe2DXCoil: Coil:Cooling:DX:SingleSpeed "OFFICE_OPEN_2_17_Z81_COOLINGCOILDX" - Air-cooled condenser inlet dry-bulb temperature below 0 C. Outdoor dry-bulb temperature = -0.15
   **   ~~~   **  ... Occurrence info = YEAR ROUND RUN PERIOD, 01/19 14:00 - 14:15
   **   ~~~   ** ... Operation at low ambient temperatures may require special performance curves.
   ** Warning ** CalcDoe2DXCoil: Coil:Cooling:DX:SingleSpeed "OFFICE_OPEN_2_18_Z82_COOLINGCOILDX" - Air-cooled condenser inlet dry-bulb temperature below 0 C. Outdoor dry-bulb temperature = -0.15
   **   ~~~   **  ... Occurrence info = YEAR ROUND RUN PERIOD, 01/19 14:00 - 14:15
   **   ~~~   ** ... Operation at low ambient temperatures may require special performance curves.
   ** Warning ** CalcDoe2DXCoil: Coil:Cooling:DX:SingleSpeed "OFFICE_OPEN_2_20_Z84_COOLINGCOILDX" - Air-cooled condenser inlet dry-bulb temperature below 0 C. Outdoor dry-bulb temperature = -0.15
   **   ~~~   **  ... Occurrence info = YEAR ROUND RUN PERIOD, 01/19 14:00 - 14:15
   **   ~~~   ** ... Operation at low ambient temperatures may require special performance curves.
   ** Warning ** CalcDoe2DXCoil: Coil:Cooling:DX:SingleSpeed "OFFICE_OPEN_2_22_Z86_COOLINGCOILDX" - Air-cooled condenser inlet dry-bulb temperature below 0 C. Outdoor dry-bulb temperature = -0.15
   **   ~~~   **  ... Occurrence info = YEAR ROUND RUN PERIOD, 01/19 14:00 - 14:15
   **   ~~~   ** ... Operation at low ambient temperatures may require special performance curves.
   ** Warning ** CalcDoe2DXCoil: Coil:Cooling:DX:SingleSpeed "OFFICE_OPEN_2_23_Z87_COOLINGCOILDX" - Air-cooled condenser inlet dry-bulb temperature below 0 C. Outdoor dry-bulb temperature = -0.15
   **   ~~~   **  ... Occurrence info = YEAR ROUND RUN PERIOD, 01/19 14:00 - 14:15
   **   ~~~   ** ... Operation at low ambient temperatures may require special performance curves.
   ** Warning ** CalcDoe2DXCoil: Coil:Cooling:DX:SingleSpeed "OFFICE_OPEN_3_Z92_COOLINGCOILDX" - Air-cooled condenser inlet dry-bulb temperature below 0 C. Outdoor dry-bulb temperature = -0.15
   **   ~~~   **  ... Occurrence info = YEAR ROUND RUN PERIOD, 01/19 14:00 - 14:15
   **   ~~~   ** ... Operation at low ambient temperatures may require special performance curves.
   ** Warning ** CalcDoe2DXCoil: Coil:Cooling:DX:SingleSpeed "OFFICE_OPEN_3_3_Z96_COOLINGCOILDX" - Air-cooled condenser inlet dry-bulb temperature below 0 C. Outdoor dry-bulb temperature = -0.15
   **   ~~~   **  ... Occurrence info = YEAR ROUND RUN PERIOD, 01/19 14:00 - 14:15
   **   ~~~   ** ... Operation at low ambient temperatures may require special performance curves.
   ** Warning ** CalcDoe2DXCoil: Coil:Cooling:DX:SingleSpeed "OFFICE_OPEN_3_4_Z97_COOLINGCOILDX" - Air-cooled condenser inlet dry-bulb temperature below 0 C. Outdoor dry-bulb temperature = -0.15
   **   ~~~   **  ... Occurrence info = YEAR ROUND RUN PERIOD, 01/19 14:00 - 14:15
   **   ~~~   ** ... Operation at low ambient temperatures may require special performance curves.
   ** Warning ** CalcDoe2DXCoil: Coil:Cooling:DX:SingleSpeed "OFFICE_OPEN_3_5_Z98_COOLINGCOILDX" - Air-cooled condenser inlet dry-bulb temperature below 0 C. Outdoor dry-bulb temperature = -0.15
   **   ~~~   **  ... Occurrence info = YEAR ROUND RUN PERIOD, 01/19 14:00 - 14:15
   **   ~~~   ** ... Operation at low ambient temperatures may require special performance curves.
   ** Warning ** CalcDoe2DXCoil: Coil:Cooling:DX:SingleSpeed "OFFICE_OPEN_3_6_Z99_COOLINGCOILDX" - Air-cooled condenser inlet dry-bulb temperature below 0 C. Outdoor dry-bulb temperature = -0.15
   **   ~~~   **  ... Occurrence info = YEAR ROUND RUN PERIOD, 01/19 14:00 - 14:15
   **   ~~~   ** ... Operation at low ambient temperatures may require special performance curves.
   ** Warning ** CalcDoe2DXCoil: Coil:Cooling:DX:SingleSpeed "OFFICE_OPEN_3_8_Z101_COOLINGCOILDX" - Air-cooled condenser inlet dry-bulb temperature below 0 C. Outdoor dry-bulb temperature = -0.15
   **   ~~~   **  ... Occurrence info = YEAR ROUND RUN PERIOD, 01/19 14:00 - 14:15
   **   ~~~   ** ... Operation at low ambient temperatures may require special performance curves.
   ** Warning ** CalcDoe2DXCoil: Coil:Cooling:DX:SingleSpeed "OFFICE_OPEN_3_9_Z102_COOLINGCOILDX" - Air-cooled condenser inlet dry-bulb temperature below 0 C. Outdoor dry-bulb temperature = -0.15
   **   ~~~   **  ... Occurrence info = YEAR ROUND RUN PERIOD, 01/19 14:00 - 14:15
   **   ~~~   ** ... Operation at low ambient temperatures may require special performance curves.
   ** Warning ** CalcDoe2DXCoil: Coil:Cooling:DX:SingleSpeed "OFFICE_OPEN_3_10_Z103_COOLINGCOILDX" - Air-cooled condenser inlet dry-bulb temperature below 0 C. Outdoor dry-bulb temperature = -0.15
   **   ~~~   **  ... Occurrence info = YEAR ROUND RUN PERIOD, 01/19 14:00 - 14:15
   **   ~~~   ** ... Operation at low ambient temperatures may require special performance curves.
   ** Warning ** CalcDoe2DXCoil: Coil:Cooling:DX:SingleSpeed "OFFICE_OPEN_3_11_Z104_COOLINGCOILDX" - Air-cooled condenser inlet dry-bulb temperature below 0 C. Outdoor dry-bulb temperature = -0.15
   **   ~~~   **  ... Occurrence info = YEAR ROUND RUN PERIOD, 01/19 14:00 - 14:15
   **   ~~~   ** ... Operation at low ambient temperatures may require special performance curves.
   ** Warning ** CalcDoe2DXCoil: Coil:Cooling:DX:SingleSpeed "OFFICE_OPEN_3_12_Z105_COOLINGCOILDX" - Air-cooled condenser inlet dry-bulb temperature below 0 C. Outdoor dry-bulb temperature = -0.15
   **   ~~~   **  ... Occurrence info = YEAR ROUND RUN PERIOD, 01/19 14:00 - 14:15
   **   ~~~   ** ... Operation at low ambient temperatures may require special performance curves.
   ** Warning ** CalcDoe2DXCoil: Coil:Cooling:DX:SingleSpeed "OFFICE_OPEN_3_13_Z106_COOLINGCOILDX" - Air-cooled condenser inlet dry-bulb temperature below 0 C. Outdoor dry-bulb temperature = -0.15
   **   ~~~   **  ... Occurrence info = YEAR ROUND RUN PERIOD, 01/19 14:00 - 14:15
   **   ~~~   ** ... Operation at low ambient temperatures may require special performance curves.
   ** Warning ** CalcDoe2DXCoil: Coil:Cooling:DX:SingleSpeed "OFFICE_OPEN_3_14_Z107_COOLINGCOILDX" - Air-cooled condenser inlet dry-bulb temperature below 0 C. Outdoor dry-bulb temperature = -0.15
   **   ~~~   **  ... Occurrence info = YEAR ROUND RUN PERIOD, 01/19 14:00 - 14:15
   **   ~~~   ** ... Operation at low ambient temperatures may require special performance curves.
   ** Warning ** CalcDoe2DXCoil: Coil:Cooling:DX:SingleSpeed "OFFICE_OPEN_3_15_Z108_COOLINGCOILDX" - Air-cooled condenser inlet dry-bulb temperature below 0 C. Outdoor dry-bulb temperature = -0.15
   **   ~~~   **  ... Occurrence info = YEAR ROUND RUN PERIOD, 01/19 14:00 - 14:15
   **   ~~~   ** ... Operation at low ambient temperatures may require special performance curves.
   ** Warning ** CalcDoe2DXCoil: Coil:Cooling:DX:SingleSpeed "OFFICE_OPEN_3_16_Z109_COOLINGCOILDX" - Air-cooled condenser inlet dry-bulb temperature below 0 C. Outdoor dry-bulb temperature = -0.15
   **   ~~~   **  ... Occurrence info = YEAR ROUND RUN PERIOD, 01/19 14:00 - 14:15
   **   ~~~   ** ... Operation at low ambient temperatures may require special performance curves.
   ** Warning ** CalcDoe2DXCoil: Coil:Cooling:DX:SingleSpeed "OFFICE_OPEN_3_17_Z110_COOLINGCOILDX" - Air-cooled condenser inlet dry-bulb temperature below 0 C. Outdoor dry-bulb temperature = -0.15
   **   ~~~   **  ... Occurrence info = YEAR ROUND RUN PERIOD, 01/19 14:00 - 14:15
   **   ~~~   ** ... Operation at low ambient temperatures may require special performance curves.
   ** Warning ** CalcDoe2DXCoil: Coil:Cooling:DX:SingleSpeed "OFFICE_OPEN_3_18_Z111_COOLINGCOILDX" - Air-cooled condenser inlet dry-bulb temperature below 0 C. Outdoor dry-bulb temperature = -0.15
   **   ~~~   **  ... Occurrence info = YEAR ROUND RUN PERIOD, 01/19 14:00 - 14:15
   **   ~~~   ** ... Operation at low ambient temperatures may require special performance curves.
   ** Warning ** CalcDoe2DXCoil: Coil:Cooling:DX:SingleSpeed "OFFICE_OPEN_3_19_Z112_COOLINGCOILDX" - Air-cooled condenser inlet dry-bulb temperature below 0 C. Outdoor dry-bulb temperature = -0.15
   **   ~~~   **  ... Occurrence info = YEAR ROUND RUN PERIOD, 01/19 14:00 - 14:15
   **   ~~~   ** ... Operation at low ambient temperatures may require special performance curves.
   ** Warning ** CalcDoe2DXCoil: Coil:Cooling:DX:SingleSpeed "OFFICE_OPEN_3_20_Z113_COOLINGCOILDX" - Air-cooled condenser inlet dry-bulb temperature below 0 C. Outdoor dry-bulb temperature = -0.15
   **   ~~~   **  ... Occurrence info = YEAR ROUND RUN PERIOD, 01/19 14:00 - 14:15
   **   ~~~   ** ... Operation at low ambient temperatures may require special performance curves.
   ** Warning ** CalcDoe2DXCoil: Coil:Cooling:DX:SingleSpeed "OFFICE_OPEN_3_21_Z114_COOLINGCOILDX" - Air-cooled condenser inlet dry-bulb temperature below 0 C. Outdoor dry-bulb temperature = -0.15
   **   ~~~   **  ... Occurrence info = YEAR ROUND RUN PERIOD, 01/19 14:00 - 14:15
   **   ~~~   ** ... Operation at low ambient temperatures may require special performance curves.
   ** Warning ** CalcDoe2DXCoil: Coil:Cooling:DX:SingleSpeed "OFFICE_OPEN_3_22_Z115_COOLINGCOILDX" - Air-cooled condenser inlet dry-bulb temperature below 0 C. Outdoor dry-bulb temperature = -0.15
   **   ~~~   **  ... Occurrence info = YEAR ROUND RUN PERIOD, 01/19 14:00 - 14:15
   **   ~~~   ** ... Operation at low ambient temperatures may require special performance curves.
   ** Warning ** CalcDoe2DXCoil: Coil:Cooling:DX:SingleSpeed "OFFICE_PRIVATE_4_Z121_COOLINGCOILDX" - Air-cooled condenser inlet dry-bulb temperature below 0 C. Outdoor dry-bulb temperature = -0.15
   **   ~~~   **  ... Occurrence info = YEAR ROUND RUN PERIOD, 01/19 14:00 - 14:15
   **   ~~~   ** ... Operation at low ambient temperatures may require special performance curves.
   ** Warning ** CalcDoe2DXCoil: Coil:Cooling:DX:SingleSpeed "OFFICE_OPEN_4_2_Z123_COOLINGCOILDX" - Air-cooled condenser inlet dry-bulb temperature below 0 C. Outdoor dry-bulb temperature = -0.15
   **   ~~~   **  ... Occurrence info = YEAR ROUND RUN PERIOD, 01/19 14:00 - 14:15
   **   ~~~   ** ... Operation at low ambient temperatures may require special performance curves.
   ** Warning ** CalcDoe2DXCoil: Coil:Cooling:DX:SingleSpeed "OFFICE_OPEN_4_3_Z124_COOLINGCOILDX" - Air-cooled condenser inlet dry-bulb temperature below 0 C. Outdoor dry-bulb temperature = -0.15
   **   ~~~   **  ... Occurrence info = YEAR ROUND RUN PERIOD, 01/19 14:00 - 14:15
   **   ~~~   ** ... Operation at low ambient temperatures may require special performance curves.
   ** Warning ** CalcDoe2DXCoil: Coil:Cooling:DX:SingleSpeed "OFFICE_OPEN_4_6_Z127_COOLINGCOILDX" - Air-cooled condenser inlet dry-bulb temperature below 0 C. Outdoor dry-bulb temperature = -0.15
   **   ~~~   **  ... Occurrence info = YEAR ROUND RUN PERIOD, 01/19 14:00 - 14:15
   **   ~~~   ** ... Operation at low ambient temperatures may require special performance curves.
   ** Warning ** CalcDoe2DXCoil: Coil:Cooling:DX:SingleSpeed "OFFICE_OPEN_4_7_Z128_COOLINGCOILDX" - Air-cooled condenser inlet dry-bulb temperature below 0 C. Outdoor dry-bulb temperature = -0.15
   **   ~~~   **  ... Occurrence info = YEAR ROUND RUN PERIOD, 01/19 14:00 - 14:15
   **   ~~~   ** ... Operation at low ambient temperatures may require special performance curves.
   ** Warning ** CalcDoe2DXCoil: Coil:Cooling:DX:SingleSpeed "OFFICE_OPEN_4_8_Z129_COOLINGCOILDX" - Air-cooled condenser inlet dry-bulb temperature below 0 C. Outdoor dry-bulb temperature = -0.15
   **   ~~~   **  ... Occurrence info = YEAR ROUND RUN PERIOD, 01/19 14:00 - 14:15
   **   ~~~   ** ... Operation at low ambient temperatures may require special performance curves.
   ** Warning ** CalcDoe2DXCoil: Coil:Cooling:DX:SingleSpeed "OFFICE_OPEN_4_9_Z130_COOLINGCOILDX" - Air-cooled condenser inlet dry-bulb temperature below 0 C. Outdoor dry-bulb temperature = -0.15
   **   ~~~   **  ... Occurrence info = YEAR ROUND RUN PERIOD, 01/19 14:00 - 14:15
   **   ~~~   ** ... Operation at low ambient temperatures may require special performance curves.
   ** Warning ** CalcDoe2DXCoil: Coil:Cooling:DX:SingleSpeed "OFFICE_OPEN_4_10_Z131_COOLINGCOILDX" - Air-cooled condenser inlet dry-bulb temperature below 0 C. Outdoor dry-bulb temperature = -0.15
   **   ~~~   **  ... Occurrence info = YEAR ROUND RUN PERIOD, 01/19 14:00 - 14:15
   **   ~~~   ** ... Operation at low ambient temperatures may require special performance curves.
   ** Warning ** CalcDoe2DXCoil: Coil:Cooling:DX:SingleSpeed "OFFICE_OPEN_4_11_Z132_COOLINGCOILDX" - Air-cooled condenser inlet dry-bulb temperature below 0 C. Outdoor dry-bulb temperature = -0.15
   **   ~~~   **  ... Occurrence info = YEAR ROUND RUN PERIOD, 01/19 14:00 - 14:15
   **   ~~~   ** ... Operation at low ambient temperatures may require special performance curves.
   ** Warning ** CalcDoe2DXCoil: Coil:Cooling:DX:SingleSpeed "OFFICE_OPEN_4_12_Z133_COOLINGCOILDX" - Air-cooled condenser inlet dry-bulb temperature below 0 C. Outdoor dry-bulb temperature = -0.15
   **   ~~~   **  ... Occurrence info = YEAR ROUND RUN PERIOD, 01/19 14:00 - 14:15
   **   ~~~   ** ... Operation at low ambient temperatures may require special performance curves.
   ** Warning ** CalcDoe2DXCoil: Coil:Cooling:DX:SingleSpeed "OFFICE_OPEN_4_13_Z134_COOLINGCOILDX" - Air-cooled condenser inlet dry-bulb temperature below 0 C. Outdoor dry-bulb temperature = -0.15
   **   ~~~   **  ... Occurrence info = YEAR ROUND RUN PERIOD, 01/19 14:00 - 14:15
   **   ~~~   ** ... Operation at low ambient temperatures may require special performance curves.
   ** Warning ** CalcDoe2DXCoil: Coil:Cooling:DX:SingleSpeed "OFFICE_OPEN_4_14_Z135_COOLINGCOILDX" - Air-cooled condenser inlet dry-bulb temperature below 0 C. Outdoor dry-bulb temperature = -0.15
   **   ~~~   **  ... Occurrence info = YEAR ROUND RUN PERIOD, 01/19 14:00 - 14:15
   **   ~~~   ** ... Operation at low ambient temperatures may require special performance curves.
   ** Warning ** CalcDoe2DXCoil: Coil:Cooling:DX:SingleSpeed "OFFICE_OPEN_4_15_Z136_COOLINGCOILDX" - Air-cooled condenser inlet dry-bulb temperature below 0 C. Outdoor dry-bulb temperature = -0.15
   **   ~~~   **  ... Occurrence info = YEAR ROUND RUN PERIOD, 01/19 14:00 - 14:15
   **   ~~~   ** ... Operation at low ambient temperatures may require special performance curves.
   ** Warning ** CalcDoe2DXCoil: Coil:Cooling:DX:SingleSpeed "OFFICE_OPEN_4_17_Z138_COOLINGCOILDX" - Air-cooled condenser inlet dry-bulb temperature below 0 C. Outdoor dry-bulb temperature = -0.15
   **   ~~~   **  ... Occurrence info = YEAR ROUND RUN PERIOD, 01/19 14:00 - 14:15
   **   ~~~   ** ... Operation at low ambient temperatures may require special performance curves.
   ** Warning ** CalcDoe2DXCoil: Coil:Cooling:DX:SingleSpeed "OFFICE_OPEN_4_18_Z139_COOLINGCOILDX" - Air-cooled condenser inlet dry-bulb temperature below 0 C. Outdoor dry-bulb temperature = -0.15
   **   ~~~   **  ... Occurrence info = YEAR ROUND RUN PERIOD, 01/19 14:00 - 14:15
   **   ~~~   ** ... Operation at low ambient temperatures may require special performance curves.
   ** Warning ** CalcDoe2DXCoil: Coil:Cooling:DX:SingleSpeed "OFFICE_OPEN_4_19_Z140_COOLINGCOILDX" - Air-cooled condenser inlet dry-bulb temperature below 0 C. Outdoor dry-bulb temperature = -0.15
   **   ~~~   **  ... Occurrence info = YEAR ROUND RUN PERIOD, 01/19 14:00 - 14:15
   **   ~~~   ** ... Operation at low ambient temperatures may require special performance curves.
   ** Warning ** CalcDoe2DXCoil: Coil:Cooling:DX:SingleSpeed "OFFICE_OPEN_4_20_Z141_COOLINGCOILDX" - Air-cooled condenser inlet dry-bulb temperature below 0 C. Outdoor dry-bulb temperature = -0.15
   **   ~~~   **  ... Occurrence info = YEAR ROUND RUN PERIOD, 01/19 14:00 - 14:15
   **   ~~~   ** ... Operation at low ambient temperatures may require special performance curves.
   ** Warning ** CalcDoe2DXCoil: Coil:Cooling:DX:SingleSpeed "OFFICE_OPEN_4_22_Z143_COOLINGCOILDX" - Air-cooled condenser inlet dry-bulb temperature below 0 C. Outdoor dry-bulb temperature = -0.15
   **   ~~~   **  ... Occurrence info = YEAR ROUND RUN PERIOD, 01/19 14:00 - 14:15
   **   ~~~   ** ... Operation at low ambient temperatures may require special performance curves.
   ** Warning ** CalcDoe2DXCoil: Coil:Cooling:DX:SingleSpeed "OFFICE_OPEN_4_23_Z144_COOLINGCOILDX" - Air-cooled condenser inlet dry-bulb temperature below 0 C. Outdoor dry-bulb temperature = -0.15
   **   ~~~   **  ... Occurrence info = YEAR ROUND RUN PERIOD, 01/19 14:00 - 14:15
   **   ~~~   ** ... Operation at low ambient temperatures may require special performance curves.
   ** Warning ** CalcDoe2DXCoil: Coil:Cooling:DX:SingleSpeed "MECHANICAL_1_Z33_COOLINGCOILDX" - Air-cooled condenser inlet dry-bulb temperature below 0 C. Outdoor dry-bulb temperature = -0.28
   **   ~~~   **  ...