Program Version,EnergyPlus, Version 24.2.0-94a887817b, YMD=2025.11.04 00:05
! This file shows details about the branches, nodes, and other
! elements of the flow connections.
! This file is intended for use in "debugging" potential problems
! that may also be detected by the program, but may be more easily
! identified by "eye".
! This file is also intended to support software which draws a
! schematic diagram of the HVAC system.
! ===============================================================
! #Nodes,<Number of Unique Nodes>
 #Nodes,1584
! <Node>,<NodeNumber>,<Node Name>,<Node Fluid Type>,<# Times Node Referenced After Definition>
 Node,1,LOBBY_0_Z1_ADUOUTLET,Air,4
 Node,2,CONFERENCE_0_Z2_ADUOUTLET,Air,4
 Node,3,BREAK_ROOM_0_Z3_ADUOUTLET,Air,4
 Node,4,MECHANICAL_0_Z4_ADUOUTLET,Air,4
 Node,5,OFFICE_OPEN_0_Z5_ADUOUTLET,Air,4
 Node,6,OFFICE_PRIVATE_0_Z6_ADUOUTLET,Air,4
 Node,7,STORAGE_0_Z7_ADUOUTLET,Air,4
 Node,8,OFFICE_OPEN_0_2_Z8_ADUOUTLET,Air,4
 Node,9,OFFICE_OPEN_0_3_Z9_ADUOUTLET,Air,4
 Node,10,OFFICE_OPEN_0_4_Z10_ADUOUTLET,Air,4
 Node,11,OFFICE_OPEN_0_5_Z11_ADUOUTLET,Air,4
 Node,12,OFFICE_OPEN_0_6_Z12_ADUOUTLET,Air,4
 Node,13,OFFICE_OPEN_0_7_Z13_ADUOUTLET,Air,4
 Node,14,OFFICE_OPEN_0_8_Z14_ADUOUTLET,Air,4
 Node,15,OFFICE_OPEN_0_9_Z15_ADUOUTLET,Air,4
 Node,16,OFFICE_OPEN_0_10_Z16_ADUOUTLET,Air,4
 Node,17,OFFICE_OPEN_0_11_Z17_ADUOUTLET,Air,4
 Node,18,OFFICE_OPEN_0_12_Z18_ADUOUTLET,Air,4
 Node,19,OFFICE_OPEN_0_13_Z19_ADUOUTLET,Air,4
 Node,20,OFFICE_OPEN_0_14_Z20_ADUOUTLET,Air,4
 Node,21,OFFICE_OPEN_0_15_Z21_ADUOUTLET,Air,4
 Node,22,OFFICE_OPEN_0_16_Z22_ADUOUTLET,Air,4
 Node,23,OFFICE_OPEN_0_17_Z23_ADUOUTLET,Air,4
 Node,24,OFFICE_OPEN_0_18_Z24_ADUOUTLET,Air,4
 Node,25,OFFICE_OPEN_0_19_Z25_ADUOUTLET,Air,4
 Node,26,OFFICE_OPEN_0_20_Z26_ADUOUTLET,Air,4
 Node,27,OFFICE_OPEN_0_21_Z27_ADUOUTLET,Air,4
 Node,28,OFFICE_OPEN_0_22_Z28_ADUOUTLET,Air,4
 Node,29,OFFICE_OPEN_0_23_Z29_ADUOUTLET,Air,4
 Node,30,LOBBY_1_Z30_ADUOUTLET,Air,4
 Node,31,CONFERENCE_1_Z31_ADUOUTLET,Air,4
 Node,32,BREAK_ROOM_1_Z32_ADUOUTLET,Air,4
 Node,33,MECHANICAL_1_Z33_ADUOUTLET,Air,4
 Node,34,OFFICE_OPEN_1_Z34_ADUOUTLET,Air,4
 Node,35,OFFICE_PRIVATE_1_Z35_ADUOUTLET,Air,4
 Node,36,STORAGE_1_Z36_ADUOUTLET,Air,4
 Node,37,OFFICE_OPEN_1_2_Z37_ADUOUTLET,Air,4
 Node,38,OFFICE_OPEN_1_3_Z38_ADUOUTLET,Air,4
 Node,39,OFFICE_OPEN_1_4_Z39_ADUOUTLET,Air,4
 Node,40,OFFICE_OPEN_1_5_Z40_ADUOUTLET,Air,4
 Node,41,OFFICE_OPEN_1_6_Z41_ADUOUTLET,Air,4
 Node,42,OFFICE_OPEN_1_7_Z42_ADUOUTLET,Air,4
 Node,43,OFFICE_OPEN_1_8_Z43_ADUOUTLET,Air,4
 Node,44,OFFICE_OPEN_1_9_Z44_ADUOUTLET,Air,4
 Node,45,OFFICE_OPEN_1_10_Z45_ADUOUTLET,Air,4
 Node,46,OFFICE_OPEN_1_11_Z46_ADUOUTLET,Air,4
 Node,47,OFFICE_OPEN_1_12_Z47_ADUOUTLET,Air,4
 Node,48,OFFICE_OPEN_1_13_Z48_ADUOUTLET,Air,4
 Node,49,OFFICE_OPEN_1_14_Z49_ADUOUTLET,Air,4
 Node,50,OFFICE_OPEN_1_15_Z50_ADUOUTLET,Air,4
 Node,51,OFFICE_OPEN_1_16_Z51_ADUOUTLET,Air,4
 Node,52,OFFICE_OPEN_1_17_Z52_ADUOUTLET,Air,4
 Node,53,OFFICE_OPEN_1_18_Z53_ADUOUTLET,Air,4
 Node,54,OFFICE_OPEN_1_19_Z54_ADUOUTLET,Air,4
 Node,55,OFFICE_OPEN_1_20_Z55_ADUOUTLET,Air,4
 Node,56,OFFICE_OPEN_1_21_Z56_ADUOUTLET,Air,4
 Node,57,OFFICE_OPEN_1_22_Z57_ADUOUTLET,Air,4
 Node,58,OFFICE_OPEN_1_23_Z58_ADUOUTLET,Air,4
 Node,59,LOBBY_2_Z59_ADUOUTLET,Air,4
 Node,60,CONFERENCE_2_Z60_ADUOUTLET,Air,4
 Node,61,BREAK_ROOM_2_Z61_ADUOUTLET,Air,4
 Node,62,MECHANICAL_2_Z62_ADUOUTLET,Air,4
 Node,63,OFFICE_OPEN_2_Z63_ADUOUTLET,Air,4
 Node,64,OFFICE_PRIVATE_2_Z64_ADUOUTLET,Air,4
 Node,65,STORAGE_2_Z65_ADUOUTLET,Air,4
 Node,66,OFFICE_OPEN_2_2_Z66_ADUOUTLET,Air,4
 Node,67,OFFICE_OPEN_2_3_Z67_ADUOUTLET,Air,4
 Node,68,OFFICE_OPEN_2_4_Z68_ADUOUTLET,Air,4
 Node,69,OFFICE_OPEN_2_5_Z69_ADUOUTLET,Air,4
 Node,70,OFFICE_OPEN_2_6_Z70_ADUOUTLET,Air,4
 Node,71,OFFICE_OPEN_2_7_Z71_ADUOUTLET,Air,4
 Node,72,OFFICE_OPEN_2_8_Z72_ADUOUTLET,Air,4
 Node,73,OFFICE_OPEN_2_9_Z73_ADUOUTLET,Air,4
 Node,74,OFFICE_OPEN_2_10_Z74_ADUOUTLET,Air,4
 Node,75,OFFICE_OPEN_2_11_Z75_ADUOUTLET,Air,4
 Node,76,OFFICE_OPEN_2_12_Z76_ADUOUTLET,Air,4
 Node,77,OFFICE_OPEN_2_13_Z77_ADUOUTLET,Air,4
 Node,78,OFFICE_OPEN_2_14_Z78_ADUOUTLET,Air,4
 Node,79,OFFICE_OPEN_2_15_Z79_ADUOUTLET,Air,4
 Node,80,OFFICE_OPEN_2_16_Z80_ADUOUTLET,Air,4
 Node,81,OFFICE_OPEN_2_17_Z81_ADUOUTLET,Air,4
 Node,82,OFFICE_OPEN_2_18_Z82_ADUOUTLET,Air,4
 Node,83,OFFICE_OPEN_2_19_Z83_ADUOUTLET,Air,4
 Node,84,OFFICE_OPEN_2_20_Z84_ADUOUTLET,Air,4
 Node,85,OFFICE_OPEN_2_21_Z85_ADUOUTLET,Air,4
 Node,86,OFFICE_OPEN_2_22_Z86_ADUOUTLET,Air,4
 Node,87,OFFICE_OPEN_2_23_Z87_ADUOUTLET,Air,4
 Node,88,LOBBY_3_Z88_ADUOUTLET,Air,4
 Node,89,CONFERENCE_3_Z89_ADUOUTLET,Air,4
 Node,90,BREAK_ROOM_3_Z90_ADUOUTLET,Air,4
 Node,91,MECHANICAL_3_Z91_ADUOUTLET,Air,4
 Node,92,OFFICE_OPEN_3_Z92_ADUOUTLET,Air,4
 Node,93,OFFICE_PRIVATE_3_Z93_ADUOUTLET,Air,4
 Node,94,STORAGE_3_Z94_ADUOUTLET,Air,4
 Node,95,OFFICE_OPEN_3_2_Z95_ADUOUTLET,Air,4
 Node,96,OFFICE_OPEN_3_3_Z96_ADUOUTLET,Air,4
 Node,97,OFFICE_OPEN_3_4_Z97_ADUOUTLET,Air,4
 Node,98,OFFICE_OPEN_3_5_Z98_ADUOUTLET,Air,4
 Node,99,OFFICE_OPEN_3_6_Z99_ADUOUTLET,Air,4
 Node,100,OFFICE_OPEN_3_7_Z100_ADUOUTLET,Air,4
 Node,101,OFFICE_OPEN_3_8_Z101_ADUOUTLET,Air,4
 Node,102,OFFICE_OPEN_3_9_Z102_ADUOUTLET,Air,4
 Node,103,OFFICE_OPEN_3_10_Z103_ADUOUTLET,Air,4
 Node,104,OFFICE_OPEN_3_11_Z104_ADUOUTLET,Air,4
 Node,105,OFFICE_OPEN_3_12_Z105_ADUOUTLET,Air,4
 Node,106,OFFICE_OPEN_3_13_Z106_ADUOUTLET,Air,4
 Node,107,OFFICE_OPEN_3_14_Z107_ADUOUTLET,Air,4
 Node,108,OFFICE_OPEN_3_15_Z108_ADUOUTLET,Air,4
 Node,109,OFFICE_OPEN_3_16_Z109_ADUOUTLET,Air,4
 Node,110,OFFICE_OPEN_3_17_Z110_ADUOUTLET,Air,4
 Node,111,OFFICE_OPEN_3_18_Z111_ADUOUTLET,Air,4
 Node,112,OFFICE_OPEN_3_19_Z112_ADUOUTLET,Air,4
 Node,113,OFFICE_OPEN_3_20_Z113_ADUOUTLET,Air,4
 Node,114,OFFICE_OPEN_3_21_Z114_ADUOUTLET,Air,4
 Node,115,OFFICE_OPEN_3_22_Z115_ADUOUTLET,Air,4
 Node,116,LOBBY_4_Z116_ADUOUTLET,Air,4
 Node,117,CONFERENCE_4_Z117_ADUOUTLET,Air,4
 Node,118,BREAK_ROOM_4_Z118_ADUOUTLET,Air,4
 Node,119,MECHANICAL_4_Z119_ADUOUTLET,Air,4
 Node,120,OFFICE_OPEN_4_Z120_ADUOUTLET,Air,4
 Node,121,OFFICE_PRIVATE_4_Z121_ADUOUTLET,Air,4
 Node,122,STORAGE_4_Z122_ADUOUTLET,Air,4
 Node,123,OFFICE_OPEN_4_2_Z123_ADUOUTLET,Air,4
 Node,124,OFFICE_OPEN_4_3_Z124_ADUOUTLET,Air,4
 Node,125,OFFICE_OPEN_4_4_Z125_ADUOUTLET,Air,4
 Node,126,OFFICE_OPEN_4_5_Z126_ADUOUTLET,Air,4
 Node,127,OFFICE_OPEN_4_6_Z127_ADUOUTLET,Air,4
 Node,128,OFFICE_OPEN_4_7_Z128_ADUOUTLET,Air,4
 Node,129,OFFICE_OPEN_4_8_Z129_ADUOUTLET,Air,4
 Node,130,OFFICE_OPEN_4_9_Z130_ADUOUTLET,Air,4
 Node,131,OFFICE_OPEN_4_10_Z131_ADUOUTLET,Air,4
 Node,132,OFFICE_OPEN_4_11_Z132_ADUOUTLET,Air,4
 Node,133,OFFICE_OPEN_4_12_Z133_ADUOUTLET,Air,4
 Node,134,OFFICE_OPEN_4_13_Z134_ADUOUTLET,Air,4
 Node,135,OFFICE_OPEN_4_14_Z135_ADUOUTLET,Air,4
 Node,136,OFFICE_OPEN_4_15_Z136_ADUOUTLET,Air,4
 Node,137,OFFICE_OPEN_4_16_Z137_ADUOUTLET,Air,4
 Node,138,OFFICE_OPEN_4_17_Z138_ADUOUTLET,Air,4
 Node,139,OFFICE_OPEN_4_18_Z139_ADUOUTLET,Air,4
 Node,140,OFFICE_OPEN_4_19_Z140_ADUOUTLET,Air,4
 Node,141,OFFICE_OPEN_4_20_Z141_ADUOUTLET,Air,4
 Node,142,OFFICE_OPEN_4_21_Z142_ADUOUTLET,Air,4
 Node,143,OFFICE_OPEN_4_22_Z143_ADUOUTLET,Air,4
 Node,144,OFFICE_OPEN_4_23_Z144_ADUOUTLET,Air,4
 Node,145,LOBBY_0_Z1_SUPPLYINLET,Air,3
 Node,146,LOBBY_0_Z1_COOLC-HEATCNODE,Air,6
 Node,147,LOBBY_0_Z1_HEATC-FANNODE,Air,5
 Node,148,LOBBY_0_Z1_SUPPLYEQUIPMENTOUTLETNODE,Air,3
 Node,149,CONFERENCE_0_Z2_SUPPLYINLET,Air,3
 Node,150,CONFERENCE_0_Z2_COOLC-HEATCNODE,Air,6
 Node,151,CONFERENCE_0_Z2_HEATC-FANNODE,Air,5
 Node,152,CONFERENCE_0_Z2_SUPPLYEQUIPMENTOUTLETNODE,Air,3
 Node,153,BREAK_ROOM_0_Z3_SUPPLYINLET,Air,3
 Node,154,BREAK_ROOM_0_Z3_COOLC-HEATCNODE,Air,6
 Node,155,BREAK_ROOM_0_Z3_HEATC-FANNODE,Air,5
 Node,156,BREAK_ROOM_0_Z3_SUPPLYEQUIPMENTOUTLETNODE,Air,3
 Node,157,MECHANICAL_0_Z4_SUPPLYINLET,Air,3
 Node,158,MECHANICAL_0_Z4_COOLC-HEATCNODE,Air,6
 Node,159,MECHANICAL_0_Z4_HEATC-FANNODE,Air,5
 Node,160,MECHANICAL_0_Z4_SUPPLYEQUIPMENTOUTLETNODE,Air,3
 Node,161,OFFICE_OPEN_0_Z5_SUPPLYINLET,Air,3
 Node,162,OFFICE_OPEN_0_Z5_COOLC-HEATCNODE,Air,6
 Node,163,OFFICE_OPEN_0_Z5_HEATC-FANNODE,Air,5
 Node,164,OFFICE_OPEN_0_Z5_SUPPLYEQUIPMENTOUTLETNODE,Air,3
 Node,165,OFFICE_PRIVATE_0_Z6_SUPPLYINLET,Air,3
 Node,166,OFFICE_PRIVATE_0_Z6_COOLC-HEATCNODE,Air,6
 Node,167,OFFICE_PRIVATE_0_Z6_HEATC-FANNODE,Air,5
 Node,168,OFFICE_PRIVATE_0_Z6_SUPPLYEQUIPMENTOUTLETNODE,Air,3
 Node,169,STORAGE_0_Z7_SUPPLYINLET,Air,3
 Node,170,STORAGE_0_Z7_COOLC-HEATCNODE,Air,6
 Node,171,STORAGE_0_Z7_HEATC-FANNODE,Air,5
 Node,172,STORAGE_0_Z7_SUPPLYEQUIPMENTOUTLETNODE,Air,3
 Node,173,OFFICE_OPEN_0_2_Z8_SUPPLYINLET,Air,3
 Node,174,OFFICE_OPEN_0_2_Z8_COOLC-HEATCNODE,Air,6
 Node,175,OFFICE_OPEN_0_2_Z8_HEATC-FANNODE,Air,5
 Node,176,OFFICE_OPEN_0_2_Z8_SUPPLYEQUIPMENTOUTLETNODE,Air,3
 Node,177,OFFICE_OPEN_0_3_Z9_SUPPLYINLET,Air,3
 Node,178,OFFICE_OPEN_0_3_Z9_COOLC-HEATCNODE,Air,6
 Node,179,OFFICE_OPEN_0_3_Z9_HEATC-FANNODE,Air,5
 Node,180,OFFICE_OPEN_0_3_Z9_SUPPLYEQUIPMENTOUTLETNODE,Air,3
 Node,181,OFFICE_OPEN_0_4_Z10_SUPPLYINLET,Air,3
 Node,182,OFFICE_OPEN_0_4_Z10_COOLC-HEATCNODE,Air,6
 Node,183,OFFICE_OPEN_0_4_Z10_HEATC-FANNODE,Air,5
 Node,184,OFFICE_OPEN_0_4_Z10_SUPPLYEQUIPMENTOUTLETNODE,Air,3
 Node,185,OFFICE_OPEN_0_5_Z11_SUPPLYINLET,Air,3
 Node,186,OFFICE_OPEN_0_5_Z11_COOLC-HEATCNODE,Air,6
 Node,187,OFFICE_OPEN_0_5_Z11_HEATC-FANNODE,Air,5
 Node,188,OFFICE_OPEN_0_5_Z11_SUPPLYEQUIPMENTOUTLETNODE,Air,3
 Node,189,OFFICE_OPEN_0_6_Z12_SUPPLYINLET,Air,3
 Node,190,OFFICE_OPEN_0_6_Z12_COOLC-HEATCNODE,Air,6
 Node,191,OFFICE_OPEN_0_6_Z12_HEATC-FANNODE,Air,5
 Node,192,OFFICE_OPEN_0_6_Z12_SUPPLYEQUIPMENTOUTLETNODE,Air,3
 Node,193,OFFICE_OPEN_0_7_Z13_SUPPLYINLET,Air,3
 Node,194,OFFICE_OPEN_0_7_Z13_COOLC-HEATCNODE,Air,6
 Node,195,OFFICE_OPEN_0_7_Z13_HEATC-FANNODE,Air,5
 Node,196,OFFICE_OPEN_0_7_Z13_SUPPLYEQUIPMENTOUTLETNODE,Air,3
 Node,197,OFFICE_OPEN_0_8_Z14_SUPPLYINLET,Air,3
 Node,198,OFFICE_OPEN_0_8_Z14_COOLC-HEATCNODE,Air,6
 Node,199,OFFICE_OPEN_0_8_Z14_HEATC-FANNODE,Air,5
 Node,200,OFFICE_OPEN_0_8_Z14_SUPPLYEQUIPMENTOUTLETNODE,Air,3
 Node,201,OFFICE_OPEN_0_9_Z15_SUPPLYINLET,Air,3
 Node,202,OFFICE_OPEN_0_9_Z15_COOLC-HEATCNODE,Air,6
 Node,203,OFFICE_OPEN_0_9_Z15_HEATC-FANNODE,Air,5
 Node,204,OFFICE_OPEN_0_9_Z15_SUPPLYEQUIPMENTOUTLETNODE,Air,3
 Node,205,OFFICE_OPEN_0_10_Z16_SUPPLYINLET,Air,3
 Node,206,OFFICE_OPEN_0_10_Z16_COOLC-HEATCNODE,Air,6
 Node,207,OFFICE_OPEN_0_10_Z16_HEATC-FANNODE,Air,5
 Node,208,OFFICE_OPEN_0_10_Z16_SUPPLYEQUIPMENTOUTLETNODE,Air,3
 Node,209,OFFICE_OPEN_0_11_Z17_SUPPLYINLET,Air,3
 Node,210,OFFICE_OPEN_0_11_Z17_COOLC-HEATCNODE,Air,6
 Node,211,OFFICE_OPEN_0_11_Z17_HEATC-FANNODE,Air,5
 Node,212,OFFICE_OPEN_0_11_Z17_SUPPLYEQUIPMENTOUTLETNODE,Air,3
 Node,213,OFFICE_OPEN_0_12_Z18_SUPPLYINLET,Air,3
 Node,214,OFFICE_OPEN_0_12_Z18_COOLC-HEATCNODE,Air,6
 Node,215,OFFICE_OPEN_0_12_Z18_HEATC-FANNODE,Air,5
 Node,216,OFFICE_OPEN_0_12_Z18_SUPPLYEQUIPMENTOUTLETNODE,Air,3
 Node,217,OFFICE_OPEN_0_13_Z19_SUPPLYINLET,Air,3
 Node,218,OFFICE_OPEN_0_13_Z19_COOLC-HEATCNODE,Air,6
 Node,219,OFFICE_OPEN_0_13_Z19_HEATC-FANNODE,Air,5
 Node,220,OFFICE_OPEN_0_13_Z19_SUPPLYEQUIPMENTOUTLETNODE,Air,3
 Node,221,OFFICE_OPEN_0_14_Z20_SUPPLYINLET,Air,3
 Node,222,OFFICE_OPEN_0_14_Z20_COOLC-HEATCNODE,Air,6
 Node,223,OFFICE_OPEN_0_14_Z20_HEATC-FANNODE,Air,5
 Node,224,OFFICE_OPEN_0_14_Z20_SUPPLYEQUIPMENTOUTLETNODE,Air,3
 Node,225,OFFICE_OPEN_0_15_Z21_SUPPLYINLET,Air,3
 Node,226,OFFICE_OPEN_0_15_Z21_COOLC-HEATCNODE,Air,6
 Node,227,OFFICE_OPEN_0_15_Z21_HEATC-FANNODE,Air,5
 Node,228,OFFICE_OPEN_0_15_Z21_SUPPLYEQUIPMENTOUTLETNODE,Air,3
 Node,229,OFFICE_OPEN_0_16_Z22_SUPPLYINLET,Air,3
 Node,230,OFFICE_OPEN_0_16_Z22_COOLC-HEATCNODE,Air,6
 Node,231,OFFICE_OPEN_0_16_Z22_HEATC-FANNODE,Air,5
 Node,232,OFFICE_OPEN_0_16_Z22_SUPPLYEQUIPMENTOUTLETNODE,Air,3
 Node,233,OFFICE_OPEN_0_17_Z23_SUPPLYINLET,Air,3
 Node,234,OFFICE_OPEN_0_17_Z23_COOLC-HEATCNODE,Air,6
 Node,235,OFFICE_OPEN_0_17_Z23_HEATC-FANNODE,Air,5
 Node,236,OFFICE_OPEN_0_17_Z23_SUPPLYEQUIPMENTOUTLETNODE,Air,3
 Node,237,OFFICE_OPEN_0_18_Z24_SUPPLYINLET,Air,3
 Node,238,OFFICE_OPEN_0_18_Z24_COOLC-HEATCNODE,Air,6
 Node,239,OFFICE_OPEN_0_18_Z24_HEATC-FANNODE,Air,5
 Node,240,OFFICE_OPEN_0_18_Z24_SUPPLYEQUIPMENTOUTLETNODE,Air,3
 Node,241,OFFICE_OPEN_0_19_Z25_SUPPLYINLET,Air,3
 Node,242,OFFICE_OPEN_0_19_Z25_COOLC-HEATCNODE,Air,6
 Node,243,OFFICE_OPEN_0_19_Z25_HEATC-FANNODE,Air,5
 Node,244,OFFICE_OPEN_0_19_Z25_SUPPLYEQUIPMENTOUTLETNODE,Air,3
 Node,245,OFFICE_OPEN_0_20_Z26_SUPPLYINLET,Air,3
 Node,246,OFFICE_OPEN_0_20_Z26_COOLC-HEATCNODE,Air,6
 Node,247,OFFICE_OPEN_0_20_Z26_HEATC-FANNODE,Air,5
 Node,248,OFFICE_OPEN_0_20_Z26_SUPPLYEQUIPMENTOUTLETNODE,Air,3
 Node,249,OFFICE_OPEN_0_21_Z27_SUPPLYINLET,Air,3
 Node,250,OFFICE_OPEN_0_21_Z27_COOLC-HEATCNODE,Air,6
 Node,251,OFFICE_OPEN_0_21_Z27_HEATC-FANNODE,Air,5
 Node,252,OFFICE_OPEN_0_21_Z27_SUPPLYEQUIPMENTOUTLETNODE,Air,3
 Node,253,OFFICE_OPEN_0_22_Z28_SUPPLYINLET,Air,3
 Node,254,OFFICE_OPEN_0_22_Z28_COOLC-HEATCNODE,Air,6
 Node,255,OFFICE_OPEN_0_22_Z28_HEATC-FANNODE,Air,5
 Node,256,OFFICE_OPEN_0_22_Z28_SUPPLYEQUIPMENTOUTLETNODE,Air,3
 Node,257,OFFICE_OPEN_0_23_Z29_SUPPLYINLET,Air,3
 Node,258,OFFICE_OPEN_0_23_Z29_COOLC-HEATCNODE,Air,6
 Node,259,OFFICE_OPEN_0_23_Z29_HEATC-FANNODE,Air,5
 Node,260,OFFICE_OPEN_0_23_Z29_SUPPLYEQUIPMENTOUTLETNODE,Air,3
 Node,261,LOBBY_1_Z30_SUPPLYINLET,Air,3
 Node,262,LOBBY_1_Z30_COOLC-HEATCNODE,Air,6
 Node,263,LOBBY_1_Z30_HEATC-FANNODE,Air,5
 Node,264,LOBBY_1_Z30_SUPPLYEQUIPMENTOUTLETNODE,Air,3
 Node,265,CONFERENCE_1_Z31_SUPPLYINLET,Air,3
 Node,266,CONFERENCE_1_Z31_COOLC-HEATCNODE,Air,6
 Node,267,CONFERENCE_1_Z31_HEATC-FANNODE,Air,5
 Node,268,CONFERENCE_1_Z31_SUPPLYEQUIPMENTOUTLETNODE,Air,3
 Node,269,BREAK_ROOM_1_Z32_SUPPLYINLET,Air,3
 Node,270,BREAK_ROOM_1_Z32_COOLC-HEATCNODE,Air,6
 Node,271,BREAK_ROOM_1_Z32_HEATC-FANNODE,Air,5
 Node,272,BREAK_ROOM_1_Z32_SUPPLYEQUIPMENTOUTLETNODE,Air,3
 Node,273,MECHANICAL_1_Z33_SUPPLYINLET,Air,3
 Node,274,MECHANICAL_1_Z33_COOLC-HEATCNODE,Air,6
 Node,275,MECHANICAL_1_Z33_HEATC-FANNODE,Air,5
 Node,276,MECHANICAL_1_Z33_SUPPLYEQUIPMENTOUTLETNODE,Air,3
 Node,277,OFFICE_OPEN_1_Z34_SUPPLYINLET,Air,3
 Node,278,OFFICE_OPEN_1_Z34_COOLC-HEATCNODE,Air,6
 Node,279,OFFICE_OPEN_1_Z34_HEATC-FANNODE,Air,5
 Node,280,OFFICE_OPEN_1_Z34_SUPPLYEQUIPMENTOUTLETNODE,Air,3
 Node,281,OFFICE_PRIVATE_1_Z35_SUPPLYINLET,Air,3
 Node,282,OFFICE_PRIVATE_1_Z35_COOLC-HEATCNODE,Air,6
 Node,283,OFFICE_PRIVATE_1_Z35_HEATC-FANNODE,Air,5
 Node,284,OFFICE_PRIVATE_1_Z35_SUPPLYEQUIPMENTOUTLETNODE,Air,3
 Node,285,STORAGE_1_Z36_SUPPLYINLET,Air,3
 Node,286,STORAGE_1_Z36_COOLC-HEATCNODE,Air,6
 Node,287,STORAGE_1_Z36_HEATC-FANNODE,Air,5
 Node,288,STORAGE_1_Z36_SUPPLYEQUIPMENTOUTLETNODE,Air,3
 Node,289,OFFICE_OPEN_1_2_Z37_SUPPLYINLET,Air,3
 Node,290,OFFICE_OPEN_1_2_Z37_COOLC-HEATCNODE,Air,6
 Node,291,OFFICE_OPEN_1_2_Z37_HEATC-FANNODE,Air,5
 Node,292,OFFICE_OPEN_1_2_Z37_SUPPLYEQUIPMENTOUTLETNODE,Air,3
 Node,293,OFFICE_OPEN_1_3_Z38_SUPPLYINLET,Air,3
 Node,294,OFFICE_OPEN_1_3_Z38_COOLC-HEATCNODE,Air,6
 Node,295,OFFICE_OPEN_1_3_Z38_HEATC-FANNODE,Air,5
 Node,296,OFFICE_OPEN_1_3_Z38_SUPPLYEQUIPMENTOUTLETNODE,Air,3
 Node,297,OFFICE_OPEN_1_4_Z39_SUPPLYINLET,Air,3
 Node,298,OFFICE_OPEN_1_4_Z39_COOLC-HEATCNODE,Air,6
 Node,299,OFFICE_OPEN_1_4_Z39_HEATC-FANNODE,Air,5
 Node,300,OFFICE_OPEN_1_4_Z39_SUPPLYEQUIPMENTOUTLETNODE,Air,3
 Node,301,OFFICE_OPEN_1_5_Z40_SUPPLYINLET,Air,3
 Node,302,OFFICE_OPEN_1_5_Z40_COOLC-HEATCNODE,Air,6
 Node,303,OFFICE_OPEN_1_5_Z40_HEATC-FANNODE,Air,5
 Node,304,OFFICE_OPEN_1_5_Z40_SUPPLYEQUIPMENTOUTLETNODE,Air,3
 Node,305,OFFICE_OPEN_1_6_Z41_SUPPLYINLET,Air,3
 Node,306,OFFICE_OPEN_1_6_Z41_COOLC-HEATCNODE,Air,6
 Node,307,OFFICE_OPEN_1_6_Z41_HEATC-FANNODE,Air,5
 Node,308,OFFICE_OPEN_1_6_Z41_SUPPLYEQUIPMENTOUTLETNODE,Air,3
 Node,309,OFFICE_OPEN_1_7_Z42_SUPPLYINLET,Air,3
 Node,310,OFFICE_OPEN_1_7_Z42_COOLC-HEATCNODE,Air,6
 Node,311,OFFICE_OPEN_1_7_Z42_HEATC-FANNODE,Air,5
 Node,312,OFFICE_OPEN_1_7_Z42_SUPPLYEQUIPMENTOUTLETNODE,Air,3
 Node,313,OFFICE_OPEN_1_8_Z43_SUPPLYINLET,Air,3
 Node,314,OFFICE_OPEN_1_8_Z43_COOLC-HEATCNODE,Air,6
 Node,315,OFFICE_OPEN_1_8_Z43_HEATC-FANNODE,Air,5
 Node,316,OFFICE_OPEN_1_8_Z43_SUPPLYEQUIPMENTOUTLETNODE,Air,3
 Node,317,OFFICE_OPEN_1_9_Z44_SUPPLYINLET,Air,3
 Node,318,OFFICE_OPEN_1_9_Z44_COOLC-HEATCNODE,Air,6
 Node,319,OFFICE_OPEN_1_9_Z44_HEATC-FANNODE,Air,5
 Node,320,OFFICE_OPEN_1_9_Z44_SUPPLYEQUIPMENTOUTLETNODE,Air,3
 Node,321,OFFICE_OPEN_1_10_Z45_SUPPLYINLET,Air,3
 Node,322,OFFICE_OPEN_1_10_Z45_COOLC-HEATCNODE,Air,6
 Node,323,OFFICE_OPEN_1_10_Z45_HEATC-FANNODE,Air,5
 Node,324,OFFICE_OPEN_1_10_Z45_SUPPLYEQUIPMENTOUTLETNODE,Air,3
 Node,325,OFFICE_OPEN_1_11_Z46_SUPPLYINLET,Air,3
 Node,326,OFFICE_OPEN_1_11_Z46_COOLC-HEATCNODE,Air,6
 Node,327,OFFICE_OPEN_1_11_Z46_HEATC-FANNODE,Air,5
 Node,328,OFFICE_OPEN_1_11_Z46_SUPPLYEQUIPMENTOUTLETNODE,Air,3
 Node,329,OFFICE_OPEN_1_12_Z47_SUPPLYINLET,Air,3
 Node,330,OFFICE_OPEN_1_12_Z47_COOLC-HEATCNODE,Air,6
 Node,331,OFFICE_OPEN_1_12_Z47_HEATC-FANNODE,Air,5
 Node,332,OFFICE_OPEN_1_12_Z47_SUPPLYEQUIPMENTOUTLETNODE,Air,3
 Node,333,OFFICE_OPEN_1_13_Z48_SUPPLYINLET,Air,3
 Node,334,OFFICE_OPEN_1_13_Z48_COOLC-HEATCNODE,Air,6
 Node,335,OFFICE_OPEN_1_13_Z48_HEATC-FANNODE,Air,5
 Node,336,OFFICE_OPEN_1_13_Z48_SUPPLYEQUIPMENTOUTLETNODE,Air,3
 Node,337,OFFICE_OPEN_1_14_Z49_SUPPLYINLET,Air,3
 Node,338,OFFICE_OPEN_1_14_Z49_COOLC-HEATCNODE,Air,6
 Node,339,OFFICE_OPEN_1_14_Z49_HEATC-FANNODE,Air,5
 Node,340,OFFICE_OPEN_1_14_Z49_SUPPLYEQUIPMENTOUTLETNODE,Air,3
 Node,341,OFFICE_OPEN_1_15_Z50_SUPPLYINLET,Air,3
 Node,342,OFFICE_OPEN_1_15_Z50_COOLC-HEATCNODE,Air,6
 Node,343,OFFICE_OPEN_1_15_Z50_HEATC-FANNODE,Air,5
 Node,344,OFFICE_OPEN_1_15_Z50_SUPPLYEQUIPMENTOUTLETNODE,Air,3
 Node,345,OFFICE_OPEN_1_16_Z51_SUPPLYINLET,Air,3
 Node,346,OFFICE_OPEN_1_16_Z51_COOLC-HEATCNODE,Air,6
 Node,347,OFFICE_OPEN_1_16_Z51_HEATC-FANNODE,Air,5
 Node,348,OFFICE_OPEN_1_16_Z51_SUPPLYEQUIPMENTOUTLETNODE,Air,3
 Node,349,OFFICE_OPEN_1_17_Z52_SUPPLYINLET,Air,3
 Node,350,OFFICE_OPEN_1_17_Z52_COOLC-HEATCNODE,Air,6
 Node,351,OFFICE_OPEN_1_17_Z52_HEATC-FANNODE,Air,5
 Node,352,OFFICE_OPEN_1_17_Z52_SUPPLYEQUIPMENTOUTLETNODE,Air,3
 Node,353,OFFICE_OPEN_1_18_Z53_SUPPLYINLET,Air,3
 Node,354,OFFICE_OPEN_1_18_Z53_COOLC-HEATCNODE,Air,6
 Node,355,OFFICE_OPEN_1_18_Z53_HEATC-FANNODE,Air,5
 Node,356,OFFICE_OPEN_1_18_Z53_SUPPLYEQUIPMENTOUTLETNODE,Air,3
 Node,357,OFFICE_OPEN_1_19_Z54_SUPPLYINLET,Air,3
 Node,358,OFFICE_OPEN_1_19_Z54_COOLC-HEATCNODE,Air,6
 Node,359,OFFICE_OPEN_1_19_Z54_HEATC-FANNODE,Air,5
 Node,360,OFFICE_OPEN_1_19_Z54_SUPPLYEQUIPMENTOUTLETNODE,Air,3
 Node,361,OFFICE_OPEN_1_20_Z55_SUPPLYINLET,Air,3
 Node,362,OFFICE_OPEN_1_20_Z55_COOLC-HEATCNODE,Air,6
 Node,363,OFFICE_OPEN_1_20_Z55_HEATC-FANNODE,Air,5
 Node,364,OFFICE_OPEN_1_20_Z55_SUPPLYEQUIPMENTOUTLETNODE,Air,3
 Node,365,OFFICE_OPEN_1_21_Z56_SUPPLYINLET,Air,3
 Node,366,OFFICE_OPEN_1_21_Z56_COOLC-HEATCNODE,Air,6
 Node,367,OFFICE_OPEN_1_21_Z56_HEATC-FANNODE,Air,5
 Node,368,OFFICE_OPEN_1_21_Z56_SUPPLYEQUIPMENTOUTLETNODE,Air,3
 Node,369,OFFICE_OPEN_1_22_Z57_SUPPLYINLET,Air,3
 Node,370,OFFICE_OPEN_1_22_Z57_COOLC-HEATCNODE,Air,6
 Node,371,OFFICE_OPEN_1_22_Z57_HEATC-FANNODE,Air,5
 Node,372,OFFICE_OPEN_1_22_Z57_SUPPLYEQUIPMENTOUTLETNODE,Air,3
 Node,373,OFFICE_OPEN_1_23_Z58_SUPPLYINLET,Air,3
 Node,374,OFFICE_OPEN_1_23_Z58_COOLC-HEATCNODE,Air,6
 Node,375,OFFICE_OPEN_1_23_Z58_HEATC-FANNODE,Air,5
 Node,376,OFFICE_OPEN_1_23_Z58_SUPPLYEQUIPMENTOUTLETNODE,Air,3
 Node,377,LOBBY_2_Z59_SUPPLYINLET,Air,3
 Node,378,LOBBY_2_Z59_COOLC-HEATCNODE,Air,6
 Node,379,LOBBY_2_Z59_HEATC-FANNODE,Air,5
 Node,380,LOBBY_2_Z59_SUPPLYEQUIPMENTOUTLETNODE,Air,3
 Node,381,CONFERENCE_2_Z60_SUPPLYINLET,Air,3
 Node,382,CONFERENCE_2_Z60_COOLC-HEATCNODE,Air,6
 Node,383,CONFERENCE_2_Z60_HEATC-FANNODE,Air,5
 Node,384,CONFERENCE_2_Z60_SUPPLYEQUIPMENTOUTLETNODE,Air,3
 Node,385,BREAK_ROOM_2_Z61_SUPPLYINLET,Air,3
 Node,386,BREAK_ROOM_2_Z61_COOLC-HEATCNODE,Air,6
 Node,387,BREAK_ROOM_2_Z61_HEATC-FANNODE,Air,5
 Node,388,BREAK_ROOM_2_Z61_SUPPLYEQUIPMENTOUTLETNODE,Air,3
 Node,389,MECHANICAL_2_Z62_SUPPLYINLET,Air,3
 Node,390,MECHANICAL_2_Z62_COOLC-HEATCNODE,Air,6
 Node,391,MECHANICAL_2_Z62_HEATC-FANNODE,Air,5
 Node,392,MECHANICAL_2_Z62_SUPPLYEQUIPMENTOUTLETNODE,Air,3
 Node,393,OFFICE_OPEN_2_Z63_SUPPLYINLET,Air,3
 Node,394,OFFICE_OPEN_2_Z63_COOLC-HEATCNODE,Air,6
 Node,395,OFFICE_OPEN_2_Z63_HEATC-FANNODE,Air,5
 Node,396,OFFICE_OPEN_2_Z63_SUPPLYEQUIPMENTOUTLETNODE,Air,3
 Node,397,OFFICE_PRIVATE_2_Z64_SUPPLYINLET,Air,3
 Node,398,OFFICE_PRIVATE_2_Z64_COOLC-HEATCNODE,Air,6
 Node,399,OFFICE_PRIVATE_2_Z64_HEATC-FANNODE,Air,5
 Node,400,OFFICE_PRIVATE_2_Z64_SUPPLYEQUIPMENTOUTLETNODE,Air,3
 Node,401,STORAGE_2_Z65_SUPPLYINLET,Air,3
 Node,402,STORAGE_2_Z65_COOLC-HEATCNODE,Air,6
 Node,403,STORAGE_2_Z65_HEATC-FANNODE,Air,5
 Node,404,STORAGE_2_Z65_SUPPLYEQUIPMENTOUTLETNODE,Air,3
 Node,405,OFFICE_OPEN_2_2_Z66_SUPPLYINLET,Air,3
 Node,406,OFFICE_OPEN_2_2_Z66_COOLC-HEATCNODE,Air,6
 Node,407,OFFICE_OPEN_2_2_Z66_HEATC-FANNODE,Air,5
 Node,408,OFFICE_OPEN_2_2_Z66_SUPPLYEQUIPMENTOUTLETNODE,Air,3
 Node,409,OFFICE_OPEN_2_3_Z67_SUPPLYINLET,Air,3
 Node,410,OFFICE_OPEN_2_3_Z67_COOLC-HEATCNODE,Air,6
 Node,411,OFFICE_OPEN_2_3_Z67_HEATC-FANNODE,Air,5
 Node,412,OFFICE_OPEN_2_3_Z67_SUPPLYEQUIPMENTOUTLETNODE,Air,3
 Node,413,OFFICE_OPEN_2_4_Z68_SUPPLYINLET,Air,3
 Node,414,OFFICE_OPEN_2_4_Z68_COOLC-HEATCNODE,Air,6
 Node,415,OFFICE_OPEN_2_4_Z68_HEATC-FANNODE,Air,5
 Node,416,OFFICE_OPEN_2_4_Z68_SUPPLYEQUIPMENTOUTLETNODE,Air,3
 Node,417,OFFICE_OPEN_2_5_Z69_SUPPLYINLET,Air,3
 Node,418,OFFICE_OPEN_2_5_Z69_COOLC-HEATCNODE,Air,6
 Node,419,OFFICE_OPEN_2_5_Z69_HEATC-FANNODE,Air,5
 Node,420,OFFICE_OPEN_2_5_Z69_SUPPLYEQUIPMENTOUTLETNODE,Air,3
 Node,421,OFFICE_OPEN_2_6_Z70_SUPPLYINLET,Air,3
 Node,422,OFFICE_OPEN_2_6_Z70_COOLC-HEATCNODE,Air,6
 Node,423,OFFICE_OPEN_2_6_Z70_HEATC-FANNODE,Air,5
 Node,424,OFFICE_OPEN_2_6_Z70_SUPPLYEQUIPMENTOUTLETNODE,Air,3
 Node,425,OFFICE_OPEN_2_7_Z71_SUPPLYINLET,Air,3
 Node,426,OFFICE_OPEN_2_7_Z71_COOLC-HEATCNODE,Air,6
 Node,427,OFFICE_OPEN_2_7_Z71_HEATC-FANNODE,Air,5
 Node,428,OFFICE_OPEN_2_7_Z71_SUPPLYEQUIPMENTOUTLETNODE,Air,3
 Node,429,OFFICE_OPEN_2_8_Z72_SUPPLYINLET,Air,3
 Node,430,OFFICE_OPEN_2_8_Z72_COOLC-HEATCNODE,Air,6
 Node,431,OFFICE_OPEN_2_8_Z72_HEATC-FANNODE,Air,5
 Node,432,OFFICE_OPEN_2_8_Z72_SUPPLYEQUIPMENTOUTLETNODE,Air,3
 Node,433,OFFICE_OPEN_2_9_Z73_SUPPLYINLET,Air,3
 Node,434,OFFICE_OPEN_2_9_Z73_COOLC-HEATCNODE,Air,6
 Node,435,OFFICE_OPEN_2_9_Z73_HEATC-FANNODE,Air,5
 Node,436,OFFICE_OPEN_2_9_Z73_SUPPLYEQUIPMENTOUTLETNODE,Air,3
 Node,437,OFFICE_OPEN_2_10_Z74_SUPPLYINLET,Air,3
 Node,438,OFFICE_OPEN_2_10_Z74_COOLC-HEATCNODE,Air,6
 Node,439,OFFICE_OPEN_2_10_Z74_HEATC-FANNODE,Air,5
 Node,440,OFFICE_OPEN_2_10_Z74_SUPPLYEQUIPMENTOUTLETNODE,Air,3
 Node,441,OFFICE_OPEN_2_11_Z75_SUPPLYINLET,Air,3
 Node,442,OFFICE_OPEN_2_11_Z75_COOLC-HEATCNODE,Air,6
 Node,443,OFFICE_OPEN_2_11_Z75_HEATC-FANNODE,Air,5
 Node,444,OFFICE_OPEN_2_11_Z75_SUPPLYEQUIPMENTOUTLETNODE,Air,3
 Node,445,OFFICE_OPEN_2_12_Z76_SUPPLYINLET,Air,3
 Node,446,OFFICE_OPEN_2_12_Z76_COOLC-HEATCNODE,Air,6
 Node,447,OFFICE_OPEN_2_12_Z76_HEATC-FANNODE,Air,5
 Node,448,OFFICE_OPEN_2_12_Z76_SUPPLYEQUIPMENTOUTLETNODE,Air,3
 Node,449,OFFICE_OPEN_2_13_Z77_SUPPLYINLET,Air,3
 Node,450,OFFICE_OPEN_2_13_Z77_COOLC-HEATCNODE,Air,6
 Node,451,OFFICE_OPEN_2_13_Z77_HEATC-FANNODE,Air,5
 Node,452,OFFICE_OPEN_2_13_Z77_SUPPLYEQUIPMENTOUTLETNODE,Air,3
 Node,453,OFFICE_OPEN_2_14_Z78_SUPPLYINLET,Air,3
 Node,454,OFFICE_OPEN_2_14_Z78_COOLC-HEATCNODE,Air,6
 Node,455,OFFICE_OPEN_2_14_Z78_HEATC-FANNODE,Air,5
 Node,456,OFFICE_OPEN_2_14_Z78_SUPPLYEQUIPMENTOUTLETNODE,Air,3
 Node,457,OFFICE_OPEN_2_15_Z79_SUPPLYINLET,Air,3
 Node,458,OFFICE_OPEN_2_15_Z79_COOLC-HEATCNODE,Air,6
 Node,459,OFFICE_OPEN_2_15_Z79_HEATC-FANNODE,Air,5
 Node,460,OFFICE_OPEN_2_15_Z79_SUPPLYEQUIPMENTOUTLETNODE,Air,3
 Node,461,OFFICE_OPEN_2_16_Z80_SUPPLYINLET,Air,3
 Node,462,OFFICE_OPEN_2_16_Z80_COOLC-HEATCNODE,Air,6
 Node,463,OFFICE_OPEN_2_16_Z80_HEATC-FANNODE,Air,5
 Node,464,OFFICE_OPEN_2_16_Z80_SUPPLYEQUIPMENTOUTLETNODE,Air,3
 Node,465,OFFICE_OPEN_2_17_Z81_SUPPLYINLET,Air,3
 Node,466,OFFICE_OPEN_2_17_Z81_COOLC-HEATCNODE,Air,6
 Node,467,OFFICE_OPEN_2_17_Z81_HEATC-FANNODE,Air,5
 Node,468,OFFICE_OPEN_2_17_Z81_SUPPLYEQUIPMENTOUTLETNODE,Air,3
 Node,469,OFFICE_OPEN_2_18_Z82_SUPPLYINLET,Air,3
 Node,470,OFFICE_OPEN_2_18_Z82_COOLC-HEATCNODE,Air,6
 Node,471,OFFICE_OPEN_2_18_Z82_HEATC-FANNODE,Air,5
 Node,472,OFFICE_OPEN_2_18_Z82_SUPPLYEQUIPMENTOUTLETNODE,Air,3
 Node,473,OFFICE_OPEN_2_19_Z83_SUPPLYINLET,Air,3
 Node,474,OFFICE_OPEN_2_19_Z83_COOLC-HEATCNODE,Air,6
 Node,475,OFFICE_OPEN_2_19_Z83_HEATC-FANNODE,Air,5
 Node,476,OFFICE_OPEN_2_19_Z83_SUPPLYEQUIPMENTOUTLETNODE,Air,3
 Node,477,OFFICE_OPEN_2_20_Z84_SUPPLYINLET,Air,3
 Node,478,OFFICE_OPEN_2_20_Z84_COOLC-HEATCNODE,Air,6
 Node,479,OFFICE_OPEN_2_20_Z84_HEATC-FANNODE,Air,5
 Node,480,OFFICE_OPEN_2_20_Z84_SUPPLYEQUIPMENTOUTLETNODE,Air,3
 Node,481,OFFICE_OPEN_2_21_Z85_SUPPLYINLET,Air,3
 Node,482,OFFICE_OPEN_2_21_Z85_COOLC-HEATCNODE,Air,6
 Node,483,OFFICE_OPEN_2_21_Z85_HEATC-FANNODE,Air,5
 Node,484,OFFICE_OPEN_2_21_Z85_SUPPLYEQUIPMENTOUTLETNODE,Air,3
 Node,485,OFFICE_OPEN_2_22_Z86_SUPPLYINLET,Air,3
 Node,486,OFFICE_OPEN_2_22_Z86_COOLC-HEATCNODE,Air,6
 Node,487,OFFICE_OPEN_2_22_Z86_HEATC-FANNODE,Air,5
 Node,488,OFFICE_OPEN_2_22_Z86_SUPPLYEQUIPMENTOUTLETNODE,Air,3
 Node,489,OFFICE_OPEN_2_23_Z87_SUPPLYINLET,Air,3
 Node,490,OFFICE_OPEN_2_23_Z87_COOLC-HEATCNODE,Air,6
 Node,491,OFFICE_OPEN_2_23_Z87_HEATC-FANNODE,Air,5
 Node,492,OFFICE_OPEN_2_23_Z87_SUPPLYEQUIPMENTOUTLETNODE,Air,3
 Node,493,LOBBY_3_Z88_SUPPLYINLET,Air,3
 Node,494,LOBBY_3_Z88_COOLC-HEATCNODE,Air,6
 Node,495,LOBBY_3_Z88_HEATC-FANNODE,Air,5
 Node,496,LOBBY_3_Z88_SUPPLYEQUIPMENTOUTLETNODE,Air,3
 Node,497,CONFERENCE_3_Z89_SUPPLYINLET,Air,3
 Node,498,CONFERENCE_3_Z89_COOLC-HEATCNODE,Air,6
 Node,499,CONFERENCE_3_Z89_HEATC-FANNODE,Air,5
 Node,500,CONFERENCE_3_Z89_SUPPLYEQUIPMENTOUTLETNODE,Air,3
 Node,501,BREAK_ROOM_3_Z90_SUPPLYINLET,Air,3
 Node,502,BREAK_ROOM_3_Z90_COOLC-HEATCNODE,Air,6
 Node,503,BREAK_ROOM_3_Z90_HEATC-FANNODE,Air,5
 Node,504,BREAK_ROOM_3_Z90_SUPPLYEQUIPMENTOUTLETNODE,Air,3
 Node,505,MECHANICAL_3_Z91_SUPPLYINLET,Air,3
 Node,506,MECHANICAL_3_Z91_COOLC-HEATCNODE,Air,6
 Node,507,MECHANICAL_3_Z91_HEATC-FANNODE,Air,5
 Node,508,MECHANICAL_3_Z91_SUPPLYEQUIPMENTOUTLETNODE,Air,3
 Node,509,OFFICE_OPEN_3_Z92_SUPPLYINLET,Air,3
 Node,510,OFFICE_OPEN_3_Z92_COOLC-HEATCNODE,Air,6
 Node,511,OFFICE_OPEN_3_Z92_HEATC-FANNODE,Air,5
 Node,512,OFFICE_OPEN_3_Z92_SUPPLYEQUIPMENTOUTLETNODE,Air,3
 Node,513,OFFICE_PRIVATE_3_Z93_SUPPLYINLET,Air,3
 Node,514,OFFICE_PRIVATE_3_Z93_COOLC-HEATCNODE,Air,6
 Node,515,OFFICE_PRIVATE_3_Z93_HEATC-FANNODE,Air,5
 Node,516,OFFICE_PRIVATE_3_Z93_SUPPLYEQUIPMENTOUTLETNODE,Air,3
 Node,517,STORAGE_3_Z94_SUPPLYINLET,Air,3
 Node,518,STORAGE_3_Z94_COOLC-HEATCNODE,Air,6
 Node,519,STORAGE_3_Z94_HEATC-FANNODE,Air,5
 Node,520,STORAGE_3_Z94_SUPPLYEQUIPMENTOUTLETNODE,Air,3
 Node,521,OFFICE_OPEN_3_2_Z95_SUPPLYINLET,Air,3
 Node,522,OFFICE_OPEN_3_2_Z95_COOLC-HEATCNODE,Air,6
 Node,523,OFFICE_OPEN_3_2_Z95_HEATC-FANNODE,Air,5
 Node,524,OFFICE_OPEN_3_2_Z95_SUPPLYEQUIPMENTOUTLETNODE,Air,3
 Node,525,OFFICE_OPEN_3_3_Z96_SUPPLYINLET,Air,3
 Node,526,OFFICE_OPEN_3_3_Z96_COOLC-HEATCNODE,Air,6
 Node,527,OFFICE_OPEN_3_3_Z96_HEATC-FANNODE,Air,5
 Node,528,OFFICE_OPEN_3_3_Z96_SUPPLYEQUIPMENTOUTLETNODE,Air,3
 Node,529,OFFICE_OPEN_3_4_Z97_SUPPLYINLET,Air,3
 Node,530,OFFICE_OPEN_3_4_Z97_COOLC-HEATCNODE,Air,6
 Node,531,OFFICE_OPEN_3_4_Z97_HEATC-FANNODE,Air,5
 Node,532,OFFICE_OPEN_3_4_Z97_SUPPLYEQUIPMENTOUTLETNODE,Air,3
 Node,533,OFFICE_OPEN_3_5_Z98_SUPPLYINLET,Air,3
 Node,534,OFFICE_OPEN_3_5_Z98_COOLC-HEATCNODE,Air,6
 Node,535,OFFICE_OPEN_3_5_Z98_HEATC-FANNODE,Air,5
 Node,536,OFFICE_OPEN_3_5_Z98_SUPPLYEQUIPMENTOUTLETNODE,Air,3
 Node,537,OFFICE_OPEN_3_6_Z99_SUPPLYINLET,Air,3
 Node,538,OFFICE_OPEN_3_6_Z99_COOLC-HEATCNODE,Air,6
 Node,539,OFFICE_OPEN_3_6_Z99_HEATC-FANNODE,Air,5
 Node,540,OFFICE_OPEN_3_6_Z99_SUPPLYEQUIPMENTOUTLETNODE,Air,3
 Node,541,OFFICE_OPEN_3_7_Z100_SUPPLYINLET,Air,3
 Node,542,OFFICE_OPEN_3_7_Z100_COOLC-HEATCNODE,Air,6
 Node,543,OFFICE_OPEN_3_7_Z100_HEATC-FANNODE,Air,5
 Node,544,OFFICE_OPEN_3_7_Z100_SUPPLYEQUIPMENTOUTLETNODE,Air,3
 Node,545,OFFICE_OPEN_3_8_Z101_SUPPLYINLET,Air,3
 Node,546,OFFICE_OPEN_3_8_Z101_COOLC-HEATCNODE,Air,6
 Node,547,OFFICE_OPEN_3_8_Z101_HEATC-FANNODE,Air,5
 Node,548,OFFICE_OPEN_3_8_Z101_SUPPLYEQUIPMENTOUTLETNODE,Air,3
 Node,549,OFFICE_OPEN_3_9_Z102_SUPPLYINLET,Air,3
 Node,550,OFFICE_OPEN_3_9_Z102_COOLC-HEATCNODE,Air,6
 Node,551,OFFICE_OPEN_3_9_Z102_HEATC-FANNODE,Air,5
 Node,552,OFFICE_OPEN_3_9_Z102_SUPPLYEQUIPMENTOUTLETNODE,Air,3
 Node,553,OFFICE_OPEN_3_10_Z103_SUPPLYINLET,Air,3
 Node,554,OFFICE_OPEN_3_10_Z103_COOLC-HEATCNODE,Air,6
 Node,555,OFFICE_OPEN_3_10_Z103_HEATC-FANNODE,Air,5
 Node,556,OFFICE_OPEN_3_10_Z103_SUPPLYEQUIPMENTOUTLETNODE,Air,3
 Node,557,OFFICE_OPEN_3_11_Z104_SUPPLYINLET,Air,3
 Node,558,OFFICE_OPEN_3_11_Z104_COOLC-HEATCNODE,Air,6
 Node,559,OFFICE_OPEN_3_11_Z104_HEATC-FANNODE,Air,5
 Node,560,OFFICE_OPEN_3_11_Z104_SUPPLYEQUIPMENTOUTLETNODE,Air,3
 Node,561,OFFICE_OPEN_3_12_Z105_SUPPLYINLET,Air,3
 Node,562,OFFICE_OPEN_3_12_Z105_COOLC-HEATCNODE,Air,6
 Node,563,OFFICE_OPEN_3_12_Z105_HEATC-FANNODE,Air,5
 Node,564,OFFICE_OPEN_3_12_Z105_SUPPLYEQUIPMENTOUTLETNODE,Air,3
 Node,565,OFFICE_OPEN_3_13_Z106_SUPPLYINLET,Air,3
 Node,566,OFFICE_OPEN_3_13_Z106_COOLC-HEATCNODE,Air,6
 Node,567,OFFICE_OPEN_3_13_Z106_HEATC-FANNODE,Air,5
 Node,568,OFFICE_OPEN_3_13_Z106_SUPPLYEQUIPMENTOUTLETNODE,Air,3
 Node,569,OFFICE_OPEN_3_14_Z107_SUPPLYINLET,Air,3
 Node,570,OFFICE_OPEN_3_14_Z107_COOLC-HEATCNODE,Air,6
 Node,571,OFFICE_OPEN_3_14_Z107_HEATC-FANNODE,Air,5
 Node,572,OFFICE_OPEN_3_14_Z107_SUPPLYEQUIPMENTOUTLETNODE,Air,3
 Node,573,OFFICE_OPEN_3_15_Z108_SUPPLYINLET,Air,3
 Node,574,OFFICE_OPEN_3_15_Z108_COOLC-HEATCNODE,Air,6
 Node,575,OFFICE_OPEN_3_15_Z108_HEATC-FANNODE,Air,5
 Node,576,OFFICE_OPEN_3_15_Z108_SUPPLYEQUIPMENTOUTLETNODE,Air,3
 Node,577,OFFICE_OPEN_3_16_Z109_SUPPLYINLET,Air,3
 Node,578,OFFICE_OPEN_3_16_Z109_COOLC-HEATCNODE,Air,6
 Node,579,OFFICE_OPEN_3_16_Z109_HEATC-FANNODE,Air,5
 Node,580,OFFICE_OPEN_3_16_Z109_SUPPLYEQUIPMENTOUTLETNODE,Air,3
 Node,581,OFFICE_OPEN_3_17_Z110_SUPPLYINLET,Air,3
 Node,582,OFFICE_OPEN_3_17_Z110_COOLC-HEATCNODE,Air,6
 Node,583,OFFICE_OPEN_3_17_Z110_HEATC-FANNODE,Air,5
 Node,584,OFFICE_OPEN_3_17_Z110_SUPPLYEQUIPMENTOUTLETNODE,Air,3
 Node,585,OFFICE_OPEN_3_18_Z111_SUPPLYINLET,Air,3
 Node,586,OFFICE_OPEN_3_18_Z111_COOLC-HEATCNODE,Air,6
 Node,587,OFFICE_OPEN_3_18_Z111_HEATC-FANNODE,Air,5
 Node,588,OFFICE_OPEN_3_18_Z111_SUPPLYEQUIPMENTOUTLETNODE,Air,3
 Node,589,OFFICE_OPEN_3_19_Z112_SUPPLYINLET,Air,3
 Node,590,OFFICE_OPEN_3_19_Z112_COOLC-HEATCNODE,Air,6
 Node,591,OFFICE_OPEN_3_19_Z112_HEATC-FANNODE,Air,5
 Node,592,OFFICE_OPEN_3_19_Z112_SUPPLYEQUIPMENTOUTLETNODE,Air,3
 Node,593,OFFICE_OPEN_3_20_Z113_SUPPLYINLET,Air,3
 Node,594,OFFICE_OPEN_3_20_Z113_COOLC-HEATCNODE,Air,6
 Node,595,OFFICE_OPEN_3_20_Z113_HEATC-FANNODE,Air,5
 Node,596,OFFICE_OPEN_3_20_Z113_SUPPLYEQUIPMENTOUTLETNODE,Air,3
 Node,597,OFFICE_OPEN_3_21_Z114_SUPPLYINLET,Air,3
 Node,598,OFFICE_OPEN_3_21_Z114_COOLC-HEATCNODE,Air,6
 Node,599,OFFICE_OPEN_3_21_Z114_HEATC-FANNODE,Air,5
 Node,600,OFFICE_OPEN_3_21_Z114_SUPPLYEQUIPMENTOUTLETNODE,Air,3
 Node,601,OFFICE_OPEN_3_22_Z115_SUPPLYINLET,Air,3
 Node,602,OFFICE_OPEN_3_22_Z115_COOLC-HEATCNODE,Air,6
 Node,603,OFFICE_OPEN_3_22_Z115_HEATC-FANNODE,Air,5
 Node,604,OFFICE_OPEN_3_22_Z115_SUPPLYEQUIPMENTOUTLETNODE,Air,3
 Node,605,LOBBY_4_Z116_SUPPLYINLET,Air,3
 Node,606,LOBBY_4_Z116_COOLC-HEATCNODE,Air,6
 Node,607,LOBBY_4_Z116_HEATC-FANNODE,Air,5
 Node,608,LOBBY_4_Z116_SUPPLYEQUIPMENTOUTLETNODE,Air,3
 Node,609,CONFERENCE_4_Z117_SUPPLYINLET,Air,3
 Node,610,CONFERENCE_4_Z117_COOLC-HEATCNODE,Air,6
 Node,611,CONFERENCE_4_Z117_HEATC-FANNODE,Air,5
 Node,612,CONFERENCE_4_Z117_SUPPLYEQUIPMENTOUTLETNODE,Air,3
 Node,613,BREAK_ROOM_4_Z118_SUPPLYINLET,Air,3
 Node,614,BREAK_ROOM_4_Z118_COOLC-HEATCNODE,Air,6
 Node,615,BREAK_ROOM_4_Z118_HEATC-FANNODE,Air,5
 Node,616,BREAK_ROOM_4_Z118_SUPPLYEQUIPMENTOUTLETNODE,Air,3
 Node,617,MECHANICAL_4_Z119_SUPPLYINLET,Air,3
 Node,618,MECHANICAL_4_Z119_COOLC-HEATCNODE,Air,6
 Node,619,MECHANICAL_4_Z119_HEATC-FANNODE,Air,5
 Node,620,MECHANICAL_4_Z119_SUPPLYEQUIPMENTOUTLETNODE,Air,3
 Node,621,OFFICE_OPEN_4_Z120_SUPPLYINLET,Air,3
 Node,622,OFFICE_OPEN_4_Z120_COOLC-HEATCNODE,Air,6
 Node,623,OFFICE_OPEN_4_Z120_HEATC-FANNODE,Air,5
 Node,624,OFFICE_OPEN_4_Z120_SUPPLYEQUIPMENTOUTLETNODE,Air,3
 Node,625,OFFICE_PRIVATE_4_Z121_SUPPLYINLET,Air,3
 Node,626,OFFICE_PRIVATE_4_Z121_COOLC-HEATCNODE,Air,6
 Node,627,OFFICE_PRIVATE_4_Z121_HEATC-FANNODE,Air,5
 Node,628,OFFICE_PRIVATE_4_Z121_SUPPLYEQUIPMENTOUTLETNODE,Air,3
 Node,629,STORAGE_4_Z122_SUPPLYINLET,Air,3
 Node,630,STORAGE_4_Z122_COOLC-HEATCNODE,Air,6
 Node,631,STORAGE_4_Z122_HEATC-FANNODE,Air,5
 Node,632,STORAGE_4_Z122_SUPPLYEQUIPMENTOUTLETNODE,Air,3
 Node,633,OFFICE_OPEN_4_2_Z123_SUPPLYINLET,Air,3
 Node,634,OFFICE_OPEN_4_2_Z123_COOLC-HEATCNODE,Air,6
 Node,635,OFFICE_OPEN_4_2_Z123_HEATC-FANNODE,Air,5
 Node,636,OFFICE_OPEN_4_2_Z123_SUPPLYEQUIPMENTOUTLETNODE,Air,3
 Node,637,OFFICE_OPEN_4_3_Z124_SUPPLYINLET,Air,3
 Node,638,OFFICE_OPEN_4_3_Z124_COOLC-HEATCNODE,Air,6
 Node,639,OFFICE_OPEN_4_3_Z124_HEATC-FANNODE,Air,5
 Node,640,OFFICE_OPEN_4_3_Z124_SUPPLYEQUIPMENTOUTLETNODE,Air,3
 Node,641,OFFICE_OPEN_4_4_Z125_SUPPLYINLET,Air,3
 Node,642,OFFICE_OPEN_4_4_Z125_COOLC-HEATCNODE,Air,6
 Node,643,OFFICE_OPEN_4_4_Z125_HEATC-FANNODE,Air,5
 Node,644,OFFICE_OPEN_4_4_Z125_SUPPLYEQUIPMENTOUTLETNODE,Air,3
 Node,645,OFFICE_OPEN_4_5_Z126_SUPPLYINLET,Air,3
 Node,646,OFFICE_OPEN_4_5_Z126_COOLC-HEATCNODE,Air,6
 Node,647,OFFICE_OPEN_4_5_Z126_HEATC-FANNODE,Air,5
 Node,648,OFFICE_OPEN_4_5_Z126_SUPPLYEQUIPMENTOUTLETNODE,Air,3
 Node,649,OFFICE_OPEN_4_6_Z127_SUPPLYINLET,Air,3
 Node,650,OFFICE_OPEN_4_6_Z127_COOLC-HEATCNODE,Air,6
 Node,651,OFFICE_OPEN_4_6_Z127_HEATC-FANNODE,Air,5
 Node,652,OFFICE_OPEN_4_6_Z127_SUPPLYEQUIPMENTOUTLETNODE,Air,3
 Node,653,OFFICE_OPEN_4_7_Z128_SUPPLYINLET,Air,3
 Node,654,OFFICE_OPEN_4_7_Z128_COOLC-HEATCNODE,Air,6
 Node,655,OFFICE_OPEN_4_7_Z128_HEATC-FANNODE,Air,5
 Node,656,OFFICE_OPEN_4_7_Z128_SUPPLYEQUIPMENTOUTLETNODE,Air,3
 Node,657,OFFICE_OPEN_4_8_Z129_SUPPLYINLET,Air,3
 Node,658,OFFICE_OPEN_4_8_Z129_COOLC-HEATCNODE,Air,6
 Node,659,OFFICE_OPEN_4_8_Z129_HEATC-FANNODE,Air,5
 Node,660,OFFICE_OPEN_4_8_Z129_SUPPLYEQUIPMENTOUTLETNODE,Air,3
 Node,661,OFFICE_OPEN_4_9_Z130_SUPPLYINLET,Air,3
 Node,662,OFFICE_OPEN_4_9_Z130_COOLC-HEATCNODE,Air,6
 Node,663,OFFICE_OPEN_4_9_Z130_HEATC-FANNODE,Air,5
 Node,664,OFFICE_OPEN_4_9_Z130_SUPPLYEQUIPMENTOUTLETNODE,Air,3
 Node,665,OFFICE_OPEN_4_10_Z131_SUPPLYINLET,Air,3
 Node,666,OFFICE_OPEN_4_10_Z131_COOLC-HEATCNODE,Air,6
 Node,667,OFFICE_OPEN_4_10_Z131_HEATC-FANNODE,Air,5
 Node,668,OFFICE_OPEN_4_10_Z131_SUPPLYEQUIPMENTOUTLETNODE,Air,3
 Node,669,OFFICE_OPEN_4_11_Z132_SUPPLYINLET,Air,3
 Node,670,OFFICE_OPEN_4_11_Z132_COOLC-HEATCNODE,Air,6
 Node,671,OFFICE_OPEN_4_11_Z132_HEATC-FANNODE,Air,5
 Node,672,OFFICE_OPEN_4_11_Z132_SUPPLYEQUIPMENTOUTLETNODE,Air,3
 Node,673,OFFICE_OPEN_4_12_Z133_SUPPLYINLET,Air,3
 Node,674,OFFICE_OPEN_4_12_Z133_COOLC-HEATCNODE,Air,6
 Node,675,OFFICE_OPEN_4_12_Z133_HEATC-FANNODE,Air,5
 Node,676,OFFICE_OPEN_4_12_Z133_SUPPLYEQUIPMENTOUTLETNODE,Air,3
 Node,677,OFFICE_OPEN_4_13_Z134_SUPPLYINLET,Air,3
 Node,678,OFFICE_OPEN_4_13_Z134_COOLC-HEATCNODE,Air,6
 Node,679,OFFICE_OPEN_4_13_Z134_HEATC-FANNODE,Air,5
 Node,680,OFFICE_OPEN_4_13_Z134_SUPPLYEQUIPMENTOUTLETNODE,Air,3
 Node,681,OFFICE_OPEN_4_14_Z135_SUPPLYINLET,Air,3
 Node,682,OFFICE_OPEN_4_14_Z135_COOLC-HEATCNODE,Air,6
 Node,683,OFFICE_OPEN_4_14_Z135_HEATC-FANNODE,Air,5
 Node,684,OFFICE_OPEN_4_14_Z135_SUPPLYEQUIPMENTOUTLETNODE,Air,3
 Node,685,OFFICE_OPEN_4_15_Z136_SUPPLYINLET,Air,3
 Node,686,OFFICE_OPEN_4_15_Z136_COOLC-HEATCNODE,Air,6
 Node,687,OFFICE_OPEN_4_15_Z136_HEATC-FANNODE,Air,5
 Node,688,OFFICE_OPEN_4_15_Z136_SUPPLYEQUIPMENTOUTLETNODE,Air,3
 Node,689,OFFICE_OPEN_4_16_Z137_SUPPLYINLET,Air,3
 Node,690,OFFICE_OPEN_4_16_Z137_COOLC-HEATCNODE,Air,6
 Node,691,OFFICE_OPEN_4_16_Z137_HEATC-FANNODE,Air,5
 Node,692,OFFICE_OPEN_4_16_Z137_SUPPLYEQUIPMENTOUTLETNODE,Air,3
 Node,693,OFFICE_OPEN_4_17_Z138_SUPPLYINLET,Air,3
 Node,694,OFFICE_OPEN_4_17_Z138_COOLC-HEATCNODE,Air,6
 Node,695,OFFICE_OPEN_4_17_Z138_HEATC-FANNODE,Air,5
 Node,696,OFFICE_OPEN_4_17_Z138_SUPPLYEQUIPMENTOUTLETNODE,Air,3
 Node,697,OFFICE_OPEN_4_18_Z139_SUPPLYINLET,Air,3
 Node,698,OFFICE_OPEN_4_18_Z139_COOLC-HEATCNODE,Air,6
 Node,699,OFFICE_OPEN_4_18_Z139_HEATC-FANNODE,Air,5
 Node,700,OFFICE_OPEN_4_18_Z139_SUPPLYEQUIPMENTOUTLETNODE,Air,3
 Node,701,OFFICE_OPEN_4_19_Z140_SUPPLYINLET,Air,3
 Node,702,OFFICE_OPEN_4_19_Z140_COOLC-HEATCNODE,Air,6
 Node,703,OFFICE_OPEN_4_19_Z140_HEATC-FANNODE,Air,5
 Node,704,OFFICE_OPEN_4_19_Z140_SUPPLYEQUIPMENTOUTLETNODE,Air,3
 Node,705,OFFICE_OPEN_4_20_Z141_SUPPLYINLET,Air,3
 Node,706,OFFICE_OPEN_4_20_Z141_COOLC-HEATCNODE,Air,6
 Node,707,OFFICE_OPEN_4_20_Z141_HEATC-FANNODE,Air,5
 Node,708,OFFICE_OPEN_4_20_Z141_SUPPLYEQUIPMENTOUTLETNODE,Air,3
 Node,709,OFFICE_OPEN_4_21_Z142_SUPPLYINLET,Air,3
 Node,710,OFFICE_OPEN_4_21_Z142_COOLC-HEATCNODE,Air,6
 Node,711,OFFICE_OPEN_4_21_Z142_HEATC-FANNODE,Air,5
 Node,712,OFFICE_OPEN_4_21_Z142_SUPPLYEQUIPMENTOUTLETNODE,Air,3
 Node,713,OFFICE_OPEN_4_22_Z143_SUPPLYINLET,Air,3
 Node,714,OFFICE_OPEN_4_22_Z143_COOLC-HEATCNODE,Air,6
 Node,715,OFFICE_OPEN_4_22_Z143_HEATC-FANNODE,Air,5
 Node,716,OFFICE_OPEN_4_22_Z143_SUPPLYEQUIPMENTOUTLETNODE,Air,3
 Node,717,OFFICE_OPEN_4_23_Z144_SUPPLYINLET,Air,3
 Node,718,OFFICE_OPEN_4_23_Z144_COOLC-HEATCNODE,Air,6
 Node,719,OFFICE_OPEN_4_23_Z144_HEATC-FANNODE,Air,5
 Node,720,OFFICE_OPEN_4_23_Z144_SUPPLYEQUIPMENTOUTLETNODE,Air,3
 Node,721,LOBBY_0 AIR NODE,Air,0
 Node,722,LOBBY_0_Z1_RETURNAIR,Air,1
 Node,723,CONFERENCE_0 AIR NODE,Air,0
 Node,724,CONFERENCE_0_Z2_RETURNAIR,Air,1
 Node,725,BREAK_ROOM_0 AIR NODE,Air,0
 Node,726,BREAK_ROOM_0_Z3_RETURNAIR,Air,1
 Node,727,MECHANICAL_0 AIR NODE,Air,0
 Node,728,MECHANICAL_0_Z4_RETURNAIR,Air,1
 Node,729,OFFICE_OPEN_0 AIR NODE,Air,0
 Node,730,OFFICE_OPEN_0_Z5_RETURNAIR,Air,1
 Node,731,OFFICE_PRIVATE_0 AIR NODE,Air,0
 Node,732,OFFICE_PRIVATE_0_Z6_RETURNAIR,Air,1
 Node,733,STORAGE_0 AIR NODE,Air,0
 Node,734,STORAGE_0_Z7_RETURNAIR,Air,1
 Node,735,OFFICE_OPEN_0_2 AIR NODE,Air,0
 Node,736,OFFICE_OPEN_0_2_Z8_RETURNAIR,Air,1
 Node,737,OFFICE_OPEN_0_3 AIR NODE,Air,0
 Node,738,OFFICE_OPEN_0_3_Z9_RETURNAIR,Air,1
 Node,739,OFFICE_OPEN_0_4 AIR NODE,Air,0
 Node,740,OFFICE_OPEN_0_4_Z10_RETURNAIR,Air,1
 Node,741,OFFICE_OPEN_0_5 AIR NODE,Air,0
 Node,742,OFFICE_OPEN_0_5_Z11_RETURNAIR,Air,1
 Node,743,OFFICE_OPEN_0_6 AIR NODE,Air,0
 Node,744,OFFICE_OPEN_0_6_Z12_RETURNAIR,Air,1
 Node,745,OFFICE_OPEN_0_7 AIR NODE,Air,0
 Node,746,OFFICE_OPEN_0_7_Z13_RETURNAIR,Air,1
 Node,747,OFFICE_OPEN_0_8 AIR NODE,Air,0
 Node,748,OFFICE_OPEN_0_8_Z14_RETURNAIR,Air,1
 Node,749,OFFICE_OPEN_0_9 AIR NODE,Air,0
 Node,750,OFFICE_OPEN_0_9_Z15_RETURNAIR,Air,1
 Node,751,OFFICE_OPEN_0_10 AIR NODE,Air,0
 Node,752,OFFICE_OPEN_0_10_Z16_RETURNAIR,Air,1
 Node,753,OFFICE_OPEN_0_11 AIR NODE,Air,0
 Node,754,OFFICE_OPEN_0_11_Z17_RETURNAIR,Air,1
 Node,755,OFFICE_OPEN_0_12 AIR NODE,Air,0
 Node,756,OFFICE_OPEN_0_12_Z18_RETURNAIR,Air,1
 Node,757,OFFICE_OPEN_0_13 AIR NODE,Air,0
 Node,758,OFFICE_OPEN_0_13_Z19_RETURNAIR,Air,1
 Node,759,OFFICE_OPEN_0_14 AIR NODE,Air,0
 Node,760,OFFICE_OPEN_0_14_Z20_RETURNAIR,Air,1
 Node,761,OFFICE_OPEN_0_15 AIR NODE,Air,0
 Node,762,OFFICE_OPEN_0_15_Z21_RETURNAIR,Air,1
 Node,763,OFFICE_OPEN_0_16 AIR NODE,Air,0
 Node,764,OFFICE_OPEN_0_16_Z22_RETURNAIR,Air,1
 Node,765,OFFICE_OPEN_0_17 AIR NODE,Air,0
 Node,766,OFFICE_OPEN_0_17_Z23_RETURNAIR,Air,1
 Node,767,OFFICE_OPEN_0_18 AIR NODE,Air,0
 Node,768,OFFICE_OPEN_0_18_Z24_RETURNAIR,Air,1
 Node,769,OFFICE_OPEN_0_19 AIR NODE,Air,0
 Node,770,OFFICE_OPEN_0_19_Z25_RETURNAIR,Air,1
 Node,771,OFFICE_OPEN_0_20 AIR NODE,Air,0
 Node,772,OFFICE_OPEN_0_20_Z26_RETURNAIR,Air,1
 Node,773,OFFICE_OPEN_0_21 AIR NODE,Air,0
 Node,774,OFFICE_OPEN_0_21_Z27_RETURNAIR,Air,1
 Node,775,OFFICE_OPEN_0_22 AIR NODE,Air,0
 Node,776,OFFICE_OPEN_0_22_Z28_RETURNAIR,Air,1
 Node,777,OFFICE_OPEN_0_23 AIR NODE,Air,0
 Node,778,OFFICE_OPEN_0_23_Z29_RETURNAIR,Air,1
 Node,779,LOBBY_1 AIR NODE,Air,0
 Node,780,LOBBY_1_Z30_RETURNAIR,Air,1
 Node,781,CONFERENCE_1 AIR NODE,Air,0
 Node,782,CONFERENCE_1_Z31_RETURNAIR,Air,1
 Node,783,BREAK_ROOM_1 AIR NODE,Air,0
 Node,784,BREAK_ROOM_1_Z32_RETURNAIR,Air,1
 Node,785,MECHANICAL_1 AIR NODE,Air,0
 Node,786,MECHANICAL_1_Z33_RETURNAIR,Air,1
 Node,787,OFFICE_OPEN_1 AIR NODE,Air,0
 Node,788,OFFICE_OPEN_1_Z34_RETURNAIR,Air,1
 Node,789,OFFICE_PRIVATE_1 AIR NODE,Air,0
 Node,790,OFFICE_PRIVATE_1_Z35_RETURNAIR,Air,1
 Node,791,STORAGE_1 AIR NODE,Air,0
 Node,792,STORAGE_1_Z36_RETURNAIR,Air,1
 Node,793,OFFICE_OPEN_1_2 AIR NODE,Air,0
 Node,794,OFFICE_OPEN_1_2_Z37_RETURNAIR,Air,1
 Node,795,OFFICE_OPEN_1_3 AIR NODE,Air,0
 Node,796,OFFICE_OPEN_1_3_Z38_RETURNAIR,Air,1
 Node,797,OFFICE_OPEN_1_4 AIR NODE,Air,0
 Node,798,OFFICE_OPEN_1_4_Z39_RETURNAIR,Air,1
 Node,799,OFFICE_OPEN_1_5 AIR NODE,Air,0
 Node,800,OFFICE_OPEN_1_5_Z40_RETURNAIR,Air,1
 Node,801,OFFICE_OPEN_1_6 AIR NODE,Air,0
 Node,802,OFFICE_OPEN_1_6_Z41_RETURNAIR,Air,1
 Node,803,OFFICE_OPEN_1_7 AIR NODE,Air,0
 Node,804,OFFICE_OPEN_1_7_Z42_RETURNAIR,Air,1
 Node,805,OFFICE_OPEN_1_8 AIR NODE,Air,0
 Node,806,OFFICE_OPEN_1_8_Z43_RETURNAIR,Air,1
 Node,807,OFFICE_OPEN_1_9 AIR NODE,Air,0
 Node,808,OFFICE_OPEN_1_9_Z44_RETURNAIR,Air,1
 Node,809,OFFICE_OPEN_1_10 AIR NODE,Air,0
 Node,810,OFFICE_OPEN_1_10_Z45_RETURNAIR,Air,1
 Node,811,OFFICE_OPEN_1_11 AIR NODE,Air,0
 Node,812,OFFICE_OPEN_1_11_Z46_RETURNAIR,Air,1
 Node,813,OFFICE_OPEN_1_12 AIR NODE,Air,0
 Node,814,OFFICE_OPEN_1_12_Z47_RETURNAIR,Air,1
 Node,815,OFFICE_OPEN_1_13 AIR NODE,Air,0
 Node,816,OFFICE_OPEN_1_13_Z48_RETURNAIR,Air,1
 Node,817,OFFICE_OPEN_1_14 AIR NODE,Air,0
 Node,818,OFFICE_OPEN_1_14_Z49_RETURNAIR,Air,1
 Node,819,OFFICE_OPEN_1_15 AIR NODE,Air,0
 Node,820,OFFICE_OPEN_1_15_Z50_RETURNAIR,Air,1
 Node,821,OFFICE_OPEN_1_16 AIR NODE,Air,0
 Node,822,OFFICE_OPEN_1_16_Z51_RETURNAIR,Air,1
 Node,823,OFFICE_OPEN_1_17 AIR NODE,Air,0
 Node,824,OFFICE_OPEN_1_17_Z52_RETURNAIR,Air,1
 Node,825,OFFICE_OPEN_1_18 AIR NODE,Air,0
 Node,826,OFFICE_OPEN_1_18_Z53_RETURNAIR,Air,1
 Node,827,OFFICE_OPEN_1_19 AIR NODE,Air,0
 Node,828,OFFICE_OPEN_1_19_Z54_RETURNAIR,Air,1
 Node,829,OFFICE_OPEN_1_20 AIR NODE,Air,0
 Node,830,OFFICE_OPEN_1_20_Z55_RETURNAIR,Air,1
 Node,831,OFFICE_OPEN_1_21 AIR NODE,Air,0
 Node,832,OFFICE_OPEN_1_21_Z56_RETURNAIR,Air,1
 Node,833,OFFICE_OPEN_1_22 AIR NODE,Air,0
 Node,834,OFFICE_OPEN_1_22_Z57_RETURNAIR,Air,1
 Node,835,OFFICE_OPEN_1_23 AIR NODE,Air,0
 Node,836,OFFICE_OPEN_1_23_Z58_RETURNAIR,Air,1
 Node,837,LOBBY_2 AIR NODE,Air,0
 Node,838,LOBBY_2_Z59_RETURNAIR,Air,1
 Node,839,CONFERENCE_2 AIR NODE,Air,0
 Node,840,CONFERENCE_2_Z60_RETURNAIR,Air,1
 Node,841,BREAK_ROOM_2 AIR NODE,Air,0
 Node,842,BREAK_ROOM_2_Z61_RETURNAIR,Air,1
 Node,843,MECHANICAL_2 AIR NODE,Air,0
 Node,844,MECHANICAL_2_Z62_RETURNAIR,Air,1
 Node,845,OFFICE_OPEN_2 AIR NODE,Air,0
 Node,846,OFFICE_OPEN_2_Z63_RETURNAIR,Air,1
 Node,847,OFFICE_PRIVATE_2 AIR NODE,Air,0
 Node,848,OFFICE_PRIVATE_2_Z64_RETURNAIR,Air,1
 Node,849,STORAGE_2 AIR NODE,Air,0
 Node,850,STORAGE_2_Z65_RETURNAIR,Air,1
 Node,851,OFFICE_OPEN_2_2 AIR NODE,Air,0
 Node,852,OFFICE_OPEN_2_2_Z66_RETURNAIR,Air,1
 Node,853,OFFICE_OPEN_2_3 AIR NODE,Air,0
 Node,854,OFFICE_OPEN_2_3_Z67_RETURNAIR,Air,1
 Node,855,OFFICE_OPEN_2_4 AIR NODE,Air,0
 Node,856,OFFICE_OPEN_2_4_Z68_RETURNAIR,Air,1
 Node,857,OFFICE_OPEN_2_5 AIR NODE,Air,0
 Node,858,OFFICE_OPEN_2_5_Z69_RETURNAIR,Air,1
 Node,859,OFFICE_OPEN_2_6 AIR NODE,Air,0
 Node,860,OFFICE_OPEN_2_6_Z70_RETURNAIR,Air,1
 Node,861,OFFICE_OPEN_2_7 AIR NODE,Air,0
 Node,862,OFFICE_OPEN_2_7_Z71_RETURNAIR,Air,1
 Node,863,OFFICE_OPEN_2_8 AIR NODE,Air,0
 Node,864,OFFICE_OPEN_2_8_Z72_RETURNAIR,Air,1
 Node,865,OFFICE_OPEN_2_9 AIR NODE,Air,0
 Node,866,OFFICE_OPEN_2_9_Z73_RETURNAIR,Air,1
 Node,867,OFFICE_OPEN_2_10 AIR NODE,Air,0
 Node,868,OFFICE_OPEN_2_10_Z74_RETURNAIR,Air,1
 Node,869,OFFICE_OPEN_2_11 AIR NODE,Air,0
 Node,870,OFFICE_OPEN_2_11_Z75_RETURNAIR,Air,1
 Node,871,OFFICE_OPEN_2_12 AIR NODE,Air,0
 Node,872,OFFICE_OPEN_2_12_Z76_RETURNAIR,Air,1
 Node,873,OFFICE_OPEN_2_13 AIR NODE,Air,0
 Node,874,OFFICE_OPEN_2_13_Z77_RETURNAIR,Air,1
 Node,875,OFFICE_OPEN_2_14 AIR NODE,Air,0
 Node,876,OFFICE_OPEN_2_14_Z78_RETURNAIR,Air,1
 Node,877,OFFICE_OPEN_2_15 AIR NODE,Air,0
 Node,878,OFFICE_OPEN_2_15_Z79_RETURNAIR,Air,1
 Node,879,OFFICE_OPEN_2_16 AIR NODE,Air,0
 Node,880,OFFICE_OPEN_2_16_Z80_RETURNAIR,Air,1
 Node,881,OFFICE_OPEN_2_17 AIR NODE,Air,0
 Node,882,OFFICE_OPEN_2_17_Z81_RETURNAIR,Air,1
 Node,883,OFFICE_OPEN_2_18 AIR NODE,Air,0
 Node,884,OFFICE_OPEN_2_18_Z82_RETURNAIR,Air,1
 Node,885,OFFICE_OPEN_2_19 AIR NODE,Air,0
 Node,886,OFFICE_OPEN_2_19_Z83_RETURNAIR,Air,1
 Node,887,OFFICE_OPEN_2_20 AIR NODE,Air,0
 Node,888,OFFICE_OPEN_2_20_Z84_RETURNAIR,Air,1
 Node,889,OFFICE_OPEN_2_21 AIR NODE,Air,0
 Node,890,OFFICE_OPEN_2_21_Z85_RETURNAIR,Air,1
 Node,891,OFFICE_OPEN_2_22 AIR NODE,Air,0
 Node,892,OFFICE_OPEN_2_22_Z86_RETURNAIR,Air,1
 Node,893,OFFICE_OPEN_2_23 AIR NODE,Air,0
 Node,894,OFFICE_OPEN_2_23_Z87_RETURNAIR,Air,1
 Node,895,LOBBY_3 AIR NODE,Air,0
 Node,896,LOBBY_3_Z88_RETURNAIR,Air,1
 Node,897,CONFERENCE_3 AIR NODE,Air,0
 Node,898,CONFERENCE_3_Z89_RETURNAIR,Air,1
 Node,899,BREAK_ROOM_3 AIR NODE,Air,0
 Node,900,BREAK_ROOM_3_Z90_RETURNAIR,Air,1
 Node,901,MECHANICAL_3 AIR NODE,Air,0
 Node,902,MECHANICAL_3_Z91_RETURNAIR,Air,1
 Node,903,OFFICE_OPEN_3 AIR NODE,Air,0
 Node,904,OFFICE_OPEN_3_Z92_RETURNAIR,Air,1
 Node,905,OFFICE_PRIVATE_3 AIR NODE,Air,0
 Node,906,OFFICE_PRIVATE_3_Z93_RETURNAIR,Air,1
 Node,907,STORAGE_3 AIR NODE,Air,0
 Node,908,STORAGE_3_Z94_RETURNAIR,Air,1
 Node,909,OFFICE_OPEN_3_2 AIR NODE,Air,0
 Node,910,OFFICE_OPEN_3_2_Z95_RETURNAIR,Air,1
 Node,911,OFFICE_OPEN_3_3 AIR NODE,Air,0
 Node,912,OFFICE_OPEN_3_3_Z96_RETURNAIR,Air,1
 Node,913,OFFICE_OPEN_3_4 AIR NODE,Air,0
 Node,914,OFFICE_OPEN_3_4_Z97_RETURNAIR,Air,1
 Node,915,OFFICE_OPEN_3_5 AIR NODE,Air,0
 Node,916,OFFICE_OPEN_3_5_Z98_RETURNAIR,Air,1
 Node,917,OFFICE_OPEN_3_6 AIR NODE,Air,0
 Node,918,OFFICE_OPEN_3_6_Z99_RETURNAIR,Air,1
 Node,919,OFFICE_OPEN_3_7 AIR NODE,Air,0
 Node,920,OFFICE_OPEN_3_7_Z100_RETURNAIR,Air,1
 Node,921,OFFICE_OPEN_3_8 AIR NODE,Air,0
 Node,922,OFFICE_OPEN_3_8_Z101_RETURNAIR,Air,1
 Node,923,OFFICE_OPEN_3_9 AIR NODE,Air,0
 Node,924,OFFICE_OPEN_3_9_Z102_RETURNAIR,Air,1
 Node,925,OFFICE_OPEN_3_10 AIR NODE,Air,0
 Node,926,OFFICE_OPEN_3_10_Z103_RETURNAIR,Air,1
 Node,927,OFFICE_OPEN_3_11 AIR NODE,Air,0
 Node,928,OFFICE_OPEN_3_11_Z104_RETURNAIR,Air,1
 Node,929,OFFICE_OPEN_3_12 AIR NODE,Air,0
 Node,930,OFFICE_OPEN_3_12_Z105_RETURNAIR,Air,1
 Node,931,OFFICE_OPEN_3_13 AIR NODE,Air,0
 Node,932,OFFICE_OPEN_3_13_Z106_RETURNAIR,Air,1
 Node,933,OFFICE_OPEN_3_14 AIR NODE,Air,0
 Node,934,OFFICE_OPEN_3_14_Z107_RETURNAIR,Air,1
 Node,935,OFFICE_OPEN_3_15 AIR NODE,Air,0
 Node,936,OFFICE_OPEN_3_15_Z108_RETURNAIR,Air,1
 Node,937,OFFICE_OPEN_3_16 AIR NODE,Air,0
 Node,938,OFFICE_OPEN_3_16_Z109_RETURNAIR,Air,1
 Node,939,OFFICE_OPEN_3_17 AIR NODE,Air,0
 Node,940,OFFICE_OPEN_3_17_Z110_RETURNAIR,Air,1
 Node,941,OFFICE_OPEN_3_18 AIR NODE,Air,0
 Node,942,OFFICE_OPEN_3_18_Z111_RETURNAIR,Air,1
 Node,943,OFFICE_OPEN_3_19 AIR NODE,Air,0
 Node,944,OFFICE_OPEN_3_19_Z112_RETURNAIR,Air,1
 Node,945,OFFICE_OPEN_3_20 AIR NODE,Air,0
 Node,946,OFFICE_OPEN_3_20_Z113_RETURNAIR,Air,1
 Node,947,OFFICE_OPEN_3_21 AIR NODE,Air,0
 Node,948,OFFICE_OPEN_3_21_Z114_RETURNAIR,Air,1
 Node,949,OFFICE_OPEN_3_22 AIR NODE,Air,0
 Node,950,OFFICE_OPEN_3_22_Z115_RETURNAIR,Air,1
 Node,951,LOBBY_4 AIR NODE,Air,0
 Node,952,LOBBY_4_Z116_RETURNAIR,Air,1
 Node,953,CONFERENCE_4 AIR NODE,Air,0
 Node,954,CONFERENCE_4_Z117_RETURNAIR,Air,1
 Node,955,BREAK_ROOM_4 AIR NODE,Air,0
 Node,956,BREAK_ROOM_4_Z118_RETURNAIR,Air,1
 Node,957,MECHANICAL_4 AIR NODE,Air,0
 Node,958,MECHANICAL_4_Z119_RETURNAIR,Air,1
 Node,959,OFFICE_OPEN_4 AIR NODE,Air,0
 Node,960,OFFICE_OPEN_4_Z120_RETURNAIR,Air,1
 Node,961,OFFICE_PRIVATE_4 AIR NODE,Air,0
 Node,962,OFFICE_PRIVATE_4_Z121_RETURNAIR,Air,1
 Node,963,STORAGE_4 AIR NODE,Air,0
 Node,964,STORAGE_4_Z122_RETURNAIR,Air,1
 Node,965,OFFICE_OPEN_4_2 AIR NODE,Air,0
 Node,966,OFFICE_OPEN_4_2_Z123_RETURNAIR,Air,1
 Node,967,OFFICE_OPEN_4_3 AIR NODE,Air,0
 Node,968,OFFICE_OPEN_4_3_Z124_RETURNAIR,Air,1
 Node,969,OFFICE_OPEN_4_4 AIR NODE,Air,0
 Node,970,OFFICE_OPEN_4_4_Z125_RETURNAIR,Air,1
 Node,971,OFFICE_OPEN_4_5 AIR NODE,Air,0
 Node,972,OFFICE_OPEN_4_5_Z126_RETURNAIR,Air,1
 Node,973,OFFICE_OPEN_4_6 AIR NODE,Air,0
 Node,974,OFFICE_OPEN_4_6_Z127_RETURNAIR,Air,1
 Node,975,OFFICE_OPEN_4_7 AIR NODE,Air,0
 Node,976,OFFICE_OPEN_4_7_Z128_RETURNAIR,Air,1
 Node,977,OFFICE_OPEN_4_8 AIR NODE,Air,0
 Node,978,OFFICE_OPEN_4_8_Z129_RETURNAIR,Air,1
 Node,979,OFFICE_OPEN_4_9 AIR NODE,Air,0
 Node,980,OFFICE_OPEN_4_9_Z130_RETURNAIR,Air,1
 Node,981,OFFICE_OPEN_4_10 AIR NODE,Air,0
 Node,982,OFFICE_OPEN_4_10_Z131_RETURNAIR,Air,1
 Node,983,OFFICE_OPEN_4_11 AIR NODE,Air,0
 Node,984,OFFICE_OPEN_4_11_Z132_RETURNAIR,Air,1
 Node,985,OFFICE_OPEN_4_12 AIR NODE,Air,0
 Node,986,OFFICE_OPEN_4_12_Z133_RETURNAIR,Air,1
 Node,987,OFFICE_OPEN_4_13 AIR NODE,Air,0
 Node,988,OFFICE_OPEN_4_13_Z134_RETURNAIR,Air,1
 Node,989,OFFICE_OPEN_4_14 AIR NODE,Air,0
 Node,990,OFFICE_OPEN_4_14_Z135_RETURNAIR,Air,1
 Node,991,OFFICE_OPEN_4_15 AIR NODE,Air,0
 Node,992,OFFICE_OPEN_4_15_Z136_RETURNAIR,Air,1
 Node,993,OFFICE_OPEN_4_16 AIR NODE,Air,0
 Node,994,OFFICE_OPEN_4_16_Z137_RETURNAIR,Air,1
 Node,995,OFFICE_OPEN_4_17 AIR NODE,Air,0
 Node,996,OFFICE_OPEN_4_17_Z138_RETURNAIR,Air,1
 Node,997,OFFICE_OPEN_4_18 AIR NODE,Air,0
 Node,998,OFFICE_OPEN_4_18_Z139_RETURNAIR,Air,1
 Node,999,OFFICE_OPEN_4_19 AIR NODE,Air,0
 Node,1000,OFFICE_OPEN_4_19_Z140_RETURNAIR,Air,1
 Node,1001,OFFICE_OPEN_4_20 AIR NODE,Air,0
 Node,1002,OFFICE_OPEN_4_20_Z141_RETURNAIR,Air,1
 Node,1003,OFFICE_OPEN_4_21 AIR NODE,Air,0
 Node,1004,OFFICE_OPEN_4_21_Z142_RETURNAIR,Air,1
 Node,1005,OFFICE_OPEN_4_22 AIR NODE,Air,0
 Node,1006,OFFICE_OPEN_4_22_Z143_RETURNAIR,Air,1
 Node,1007,OFFICE_OPEN_4_23 AIR NODE,Air,0
 Node,1008,OFFICE_OPEN_4_23_Z144_RETURNAIR,Air,1
 Node,1009,LOBBY_0_Z1_ZONEEQUIPMENTINLET,Air,2
 Node,1010,CONFERENCE_0_Z2_ZONEEQUIPMENTINLET,Air,2
 Node,1011,BREAK_ROOM_0_Z3_ZONEEQUIPMENTINLET,Air,2
 Node,1012,MECHANICAL_0_Z4_ZONEEQUIPMENTINLET,Air,2
 Node,1013,OFFICE_OPEN_0_Z5_ZONEEQUIPMENTINLET,Air,2
 Node,1014,OFFICE_PRIVATE_0_Z6_ZONEEQUIPMENTINLET,Air,2
 Node,1015,STORAGE_0_Z7_ZONEEQUIPMENTINLET,Air,2
 Node,1016,OFFICE_OPEN_0_2_Z8_ZONEEQUIPMENTINLET,Air,2
 Node,1017,OFFICE_OPEN_0_3_Z9_ZONEEQUIPMENTINLET,Air,2
 Node,1018,OFFICE_OPEN_0_4_Z10_ZONEEQUIPMENTINLET,Air,2
 Node,1019,OFFICE_OPEN_0_5_Z11_ZONEEQUIPMENTINLET,Air,2
 Node,1020,OFFICE_OPEN_0_6_Z12_ZONEEQUIPMENTINLET,Air,2
 Node,1021,OFFICE_OPEN_0_7_Z13_ZONEEQUIPMENTINLET,Air,2
 Node,1022,OFFICE_OPEN_0_8_Z14_ZONEEQUIPMENTINLET,Air,2
 Node,1023,OFFICE_OPEN_0_9_Z15_ZONEEQUIPMENTINLET,Air,2
 Node,1024,OFFICE_OPEN_0_10_Z16_ZONEEQUIPMENTINLET,Air,2
 Node,1025,OFFICE_OPEN_0_11_Z17_ZONEEQUIPMENTINLET,Air,2
 Node,1026,OFFICE_OPEN_0_12_Z18_ZONEEQUIPMENTINLET,Air,2
 Node,1027,OFFICE_OPEN_0_13_Z19_ZONEEQUIPMENTINLET,Air,2
 Node,1028,OFFICE_OPEN_0_14_Z20_ZONEEQUIPMENTINLET,Air,2
 Node,1029,OFFICE_OPEN_0_15_Z21_ZONEEQUIPMENTINLET,Air,2
 Node,1030,OFFICE_OPEN_0_16_Z22_ZONEEQUIPMENTINLET,Air,2
 Node,1031,OFFICE_OPEN_0_17_Z23_ZONEEQUIPMENTINLET,Air,2
 Node,1032,OFFICE_OPEN_0_18_Z24_ZONEEQUIPMENTINLET,Air,2
 Node,1033,OFFICE_OPEN_0_19_Z25_ZONEEQUIPMENTINLET,Air,2
 Node,1034,OFFICE_OPEN_0_20_Z26_ZONEEQUIPMENTINLET,Air,2
 Node,1035,OFFICE_OPEN_0_21_Z27_ZONEEQUIPMENTINLET,Air,2
 Node,1036,OFFICE_OPEN_0_22_Z28_ZONEEQUIPMENTINLET,Air,2
 Node,1037,OFFICE_OPEN_0_23_Z29_ZONEEQUIPMENTINLET,Air,2
 Node,1038,LOBBY_1_Z30_ZONEEQUIPMENTINLET,Air,2
 Node,1039,CONFERENCE_1_Z31_ZONEEQUIPMENTINLET,Air,2
 Node,1040,BREAK_ROOM_1_Z32_ZONEEQUIPMENTINLET,Air,2
 Node,1041,MECHANICAL_1_Z33_ZONEEQUIPMENTINLET,Air,2
 Node,1042,OFFICE_OPEN_1_Z34_ZONEEQUIPMENTINLET,Air,2
 Node,1043,OFFICE_PRIVATE_1_Z35_ZONEEQUIPMENTINLET,Air,2
 Node,1044,STORAGE_1_Z36_ZONEEQUIPMENTINLET,Air,2
 Node,1045,OFFICE_OPEN_1_2_Z37_ZONEEQUIPMENTINLET,Air,2
 Node,1046,OFFICE_OPEN_1_3_Z38_ZONEEQUIPMENTINLET,Air,2
 Node,1047,OFFICE_OPEN_1_4_Z39_ZONEEQUIPMENTINLET,Air,2
 Node,1048,OFFICE_OPEN_1_5_Z40_ZONEEQUIPMENTINLET,Air,2
 Node,1049,OFFICE_OPEN_1_6_Z41_ZONEEQUIPMENTINLET,Air,2
 Node,1050,OFFICE_OPEN_1_7_Z42_ZONEEQUIPMENTINLET,Air,2
 Node,1051,OFFICE_OPEN_1_8_Z43_ZONEEQUIPMENTINLET,Air,2
 Node,1052,OFFICE_OPEN_1_9_Z44_ZONEEQUIPMENTINLET,Air,2
 Node,1053,OFFICE_OPEN_1_10_Z45_ZONEEQUIPMENTINLET,Air,2
 Node,1054,OFFICE_OPEN_1_11_Z46_ZONEEQUIPMENTINLET,Air,2
 Node,1055,OFFICE_OPEN_1_12_Z47_ZONEEQUIPMENTINLET,Air,2
 Node,1056,OFFICE_OPEN_1_13_Z48_ZONEEQUIPMENTINLET,Air,2
 Node,1057,OFFICE_OPEN_1_14_Z49_ZONEEQUIPMENTINLET,Air,2
 Node,1058,OFFICE_OPEN_1_15_Z50_ZONEEQUIPMENTINLET,Air,2
 Node,1059,OFFICE_OPEN_1_16_Z51_ZONEEQUIPMENTINLET,Air,2
 Node,1060,OFFICE_OPEN_1_17_Z52_ZONEEQUIPMENTINLET,Air,2
 Node,1061,OFFICE_OPEN_1_18_Z53_ZONEEQUIPMENTINLET,Air,2
 Node,1062,OFFICE_OPEN_1_19_Z54_ZONEEQUIPMENTINLET,Air,2
 Node,1063,OFFICE_OPEN_1_20_Z55_ZONEEQUIPMENTINLET,Air,2
 Node,1064,OFFICE_OPEN_1_21_Z56_ZONEEQUIPMENTINLET,Air,2
 Node,1065,OFFICE_OPEN_1_22_Z57_ZONEEQUIPMENTINLET,Air,2
 Node,1066,OFFICE_OPEN_1_23_Z58_ZONEEQUIPMENTINLET,Air,2
 Node,1067,LOBBY_2_Z59_ZONEEQUIPMENTINLET,Air,2
 Node,1068,CONFERENCE_2_Z60_ZONEEQUIPMENTINLET,Air,2
 Node,1069,BREAK_ROOM_2_Z61_ZONEEQUIPMENTINLET,Air,2
 Node,1070,MECHANICAL_2_Z62_ZONEEQUIPMENTINLET,Air,2
 Node,1071,OFFICE_OPEN_2_Z63_ZONEEQUIPMENTINLET,Air,2
 Node,1072,OFFICE_PRIVATE_2_Z64_ZONEEQUIPMENTINLET,Air,2
 Node,1073,STORAGE_2_Z65_ZONEEQUIPMENTINLET,Air,2
 Node,1074,OFFICE_OPEN_2_2_Z66_ZONEEQUIPMENTINLET,Air,2
 Node,1075,OFFICE_OPEN_2_3_Z67_ZONEEQUIPMENTINLET,Air,2
 Node,1076,OFFICE_OPEN_2_4_Z68_ZONEEQUIPMENTINLET,Air,2
 Node,1077,OFFICE_OPEN_2_5_Z69_ZONEEQUIPMENTINLET,Air,2
 Node,1078,OFFICE_OPEN_2_6_Z70_ZONEEQUIPMENTINLET,Air,2
 Node,1079,OFFICE_OPEN_2_7_Z71_ZONEEQUIPMENTINLET,Air,2
 Node,1080,OFFICE_OPEN_2_8_Z72_ZONEEQUIPMENTINLET,Air,2
 Node,1081,OFFICE_OPEN_2_9_Z73_ZONEEQUIPMENTINLET,Air,2
 Node,1082,OFFICE_OPEN_2_10_Z74_ZONEEQUIPMENTINLET,Air,2
 Node,1083,OFFICE_OPEN_2_11_Z75_ZONEEQUIPMENTINLET,Air,2
 Node,1084,OFFICE_OPEN_2_12_Z76_ZONEEQUIPMENTINLET,Air,2
 Node,1085,OFFICE_OPEN_2_13_Z77_ZONEEQUIPMENTINLET,Air,2
 Node,1086,OFFICE_OPEN_2_14_Z78_ZONEEQUIPMENTINLET,Air,2
 Node,1087,OFFICE_OPEN_2_15_Z79_ZONEEQUIPMENTINLET,Air,2
 Node,1088,OFFICE_OPEN_2_16_Z80_ZONEEQUIPMENTINLET,Air,2
 Node,1089,OFFICE_OPEN_2_17_Z81_ZONEEQUIPMENTINLET,Air,2
 Node,1090,OFFICE_OPEN_2_18_Z82_ZONEEQUIPMENTINLET,Air,2
 Node,1091,OFFICE_OPEN_2_19_Z83_ZONEEQUIPMENTINLET,Air,2
 Node,1092,OFFICE_OPEN_2_20_Z84_ZONEEQUIPMENTINLET,Air,2
 Node,1093,OFFICE_OPEN_2_21_Z85_ZONEEQUIPMENTINLET,Air,2
 Node,1094,OFFICE_OPEN_2_22_Z86_ZONEEQUIPMENTINLET,Air,2
 Node,1095,OFFICE_OPEN_2_23_Z87_ZONEEQUIPMENTINLET,Air,2
 Node,1096,LOBBY_3_Z88_ZONEEQUIPMENTINLET,Air,2
 Node,1097,CONFERENCE_3_Z89_ZONEEQUIPMENTINLET,Air,2
 Node,1098,BREAK_ROOM_3_Z90_ZONEEQUIPMENTINLET,Air,2
 Node,1099,MECHANICAL_3_Z91_ZONEEQUIPMENTINLET,Air,2
 Node,1100,OFFICE_OPEN_3_Z92_ZONEEQUIPMENTINLET,Air,2
 Node,1101,OFFICE_PRIVATE_3_Z93_ZONEEQUIPMENTINLET,Air,2
 Node,1102,STORAGE_3_Z94_ZONEEQUIPMENTINLET,Air,2
 Node,1103,OFFICE_OPEN_3_2_Z95_ZONEEQUIPMENTINLET,Air,2
 Node,1104,OFFICE_OPEN_3_3_Z96_ZONEEQUIPMENTINLET,Air,2
 Node,1105,OFFICE_OPEN_3_4_Z97_ZONEEQUIPMENTINLET,Air,2
 Node,1106,OFFICE_OPEN_3_5_Z98_ZONEEQUIPMENTINLET,Air,2
 Node,1107,OFFICE_OPEN_3_6_Z99_ZONEEQUIPMENTINLET,Air,2
 Node,1108,OFFICE_OPEN_3_7_Z100_ZONEEQUIPMENTINLET,Air,2
 Node,1109,OFFICE_OPEN_3_8_Z101_ZONEEQUIPMENTINLET,Air,2
 Node,1110,OFFICE_OPEN_3_9_Z102_ZONEEQUIPMENTINLET,Air,2
 Node,1111,OFFICE_OPEN_3_10_Z103_ZONEEQUIPMENTINLET,Air,2
 Node,1112,OFFICE_OPEN_3_11_Z104_ZONEEQUIPMENTINLET,Air,2
 Node,1113,OFFICE_OPEN_3_12_Z105_ZONEEQUIPMENTINLET,Air,2
 Node,1114,OFFICE_OPEN_3_13_Z106_ZONEEQUIPMENTINLET,Air,2
 Node,1115,OFFICE_OPEN_3_14_Z107_ZONEEQUIPMENTINLET,Air,2
 Node,1116,OFFICE_OPEN_3_15_Z108_ZONEEQUIPMENTINLET,Air,2
 Node,1117,OFFICE_OPEN_3_16_Z109_ZONEEQUIPMENTINLET,Air,2
 Node,1118,OFFICE_OPEN_3_17_Z110_ZONEEQUIPMENTINLET,Air,2
 Node,1119,OFFICE_OPEN_3_18_Z111_ZONEEQUIPMENTINLET,Air,2
 Node,1120,OFFICE_OPEN_3_19_Z112_ZONEEQUIPMENTINLET,Air,2
 Node,1121,OFFICE_OPEN_3_20_Z113_ZONEEQUIPMENTINLET,Air,2
 Node,1122,OFFICE_OPEN_3_21_Z114_ZONEEQUIPMENTINLET,Air,2
 Node,1123,OFFICE_OPEN_3_22_Z115_ZONEEQUIPMENTINLET,Air,2
 Node,1124,LOBBY_4_Z116_ZONEEQUIPMENTINLET,Air,2
 Node,1125,CONFERENCE_4_Z117_ZONEEQUIPMENTINLET,Air,2
 Node,1126,BREAK_ROOM_4_Z118_ZONEEQUIPMENTINLET,Air,2
 Node,1127,MECHANICAL_4_Z119_ZONEEQUIPMENTINLET,Air,2
 Node,1128,OFFICE_OPEN_4_Z120_ZONEEQUIPMENTINLET,Air,2
 Node,1129,OFFICE_PRIVATE_4_Z121_ZONEEQUIPMENTINLET,Air,2
 Node,1130,STORAGE_4_Z122_ZONEEQUIPMENTINLET,Air,2
 Node,1131,OFFICE_OPEN_4_2_Z123_ZONEEQUIPMENTINLET,Air,2
 Node,1132,OFFICE_OPEN_4_3_Z124_ZONEEQUIPMENTINLET,Air,2
 Node,1133,OFFICE_OPEN_4_4_Z125_ZONEEQUIPMENTINLET,Air,2
 Node,1134,OFFICE_OPEN_4_5_Z126_ZONEEQUIPMENTINLET,Air,2
 Node,1135,OFFICE_OPEN_4_6_Z127_ZONEEQUIPMENTINLET,Air,2
 Node,1136,OFFICE_OPEN_4_7_Z128_ZONEEQUIPMENTINLET,Air,2
 Node,1137,OFFICE_OPEN_4_8_Z129_ZONEEQUIPMENTINLET,Air,2
 Node,1138,OFFICE_OPEN_4_9_Z130_ZONEEQUIPMENTINLET,Air,2
 Node,1139,OFFICE_OPEN_4_10_Z131_ZONEEQUIPMENTINLET,Air,2
 Node,1140,OFFICE_OPEN_4_11_Z132_ZONEEQUIPMENTINLET,Air,2
 Node,1141,OFFICE_OPEN_4_12_Z133_ZONEEQUIPMENTINLET,Air,2
 Node,1142,OFFICE_OPEN_4_13_Z134_ZONEEQUIPMENTINLET,Air,2
 Node,1143,OFFICE_OPEN_4_14_Z135_ZONEEQUIPMENTINLET,Air,2
 Node,1144,OFFICE_OPEN_4_15_Z136_ZONEEQUIPMENTINLET,Air,2
 Node,1145,OFFICE_OPEN_4_16_Z137_ZONEEQUIPMENTINLET,Air,2
 Node,1146,OFFICE_OPEN_4_17_Z138_ZONEEQUIPMENTINLET,Air,2
 Node,1147,OFFICE_OPEN_4_18_Z139_ZONEEQUIPMENTINLET,Air,2
 Node,1148,OFFICE_OPEN_4_19_Z140_ZONEEQUIPMENTINLET,Air,2
 Node,1149,OFFICE_OPEN_4_20_Z141_ZONEEQUIPMENTINLET,Air,2
 Node,1150,OFFICE_OPEN_4_21_Z142_ZONEEQUIPMENTINLET,Air,2
 Node,1151,OFFICE_OPEN_4_22_Z143_ZONEEQUIPMENTINLET,Air,2
 Node,1152,OFFICE_OPEN_4_23_Z144_ZONEEQUIPMENTINLET,Air,2
 Node,1153,LOBBY_0_Z1_ZONEEQUIPMENTOUTLETNODE,Air,2
 Node,1154,CONFERENCE_0_Z2_ZONEEQUIPMENTOUTLETNODE,Air,2
 Node,1155,BREAK_ROOM_0_Z3_ZONEEQUIPMENTOUTLETNODE,Air,2
 Node,1156,MECHANICAL_0_Z4_ZONEEQUIPMENTOUTLETNODE,Air,2
 Node,1157,OFFICE_OPEN_0_Z5_ZONEEQUIPMENTOUTLETNODE,Air,2
 Node,1158,OFFICE_PRIVATE_0_Z6_ZONEEQUIPMENTOUTLETNODE,Air,2
 Node,1159,STORAGE_0_Z7_ZONEEQUIPMENTOUTLETNODE,Air,2
 Node,1160,OFFICE_OPEN_0_2_Z8_ZONEEQUIPMENTOUTLETNODE,Air,2
 Node,1161,OFFICE_OPEN_0_3_Z9_ZONEEQUIPMENTOUTLETNODE,Air,2
 Node,1162,OFFICE_OPEN_0_4_Z10_ZONEEQUIPMENTOUTLETNODE,Air,2
 Node,1163,OFFICE_OPEN_0_5_Z11_ZONEEQUIPMENTOUTLETNODE,Air,2
 Node,1164,OFFICE_OPEN_0_6_Z12_ZONEEQUIPMENTOUTLETNODE,Air,2
 Node,1165,OFFICE_OPEN_0_7_Z13_ZONEEQUIPMENTOUTLETNODE,Air,2
 Node,1166,OFFICE_OPEN_0_8_Z14_ZONEEQUIPMENTOUTLETNODE,Air,2
 Node,1167,OFFICE_OPEN_0_9_Z15_ZONEEQUIPMENTOUTLETNODE,Air,2
 Node,1168,OFFICE_OPEN_0_10_Z16_ZONEEQUIPMENTOUTLETNODE,Air,2
 Node,1169,OFFICE_OPEN_0_11_Z17_ZONEEQUIPMENTOUTLETNODE,Air,2
 Node,1170,OFFICE_OPEN_0_12_Z18_ZONEEQUIPMENTOUTLETNODE,Air,2
 Node,1171,OFFICE_OPEN_0_13_Z19_ZONEEQUIPMENTOUTLETNODE,Air,2
 Node,1172,OFFICE_OPEN_0_14_Z20_ZONEEQUIPMENTOUTLETNODE,Air,2
 Node,1173,OFFICE_OPEN_0_15_Z21_ZONEEQUIPMENTOUTLETNODE,Air,2
 Node,1174,OFFICE_OPEN_0_16_Z22_ZONEEQUIPMENTOUTLETNODE,Air,2
 Node,1175,OFFICE_OPEN_0_17_Z23_ZONEEQUIPMENTOUTLETNODE,Air,2
 Node,1176,OFFICE_OPEN_0_18_Z24_ZONEEQUIPMENTOUTLETNODE,Air,2
 Node,1177,OFFICE_OPEN_0_19_Z25_ZONEEQUIPMENTOUTLETNODE,Air,2
 Node,1178,OFFICE_OPEN_0_20_Z26_ZONEEQUIPMENTOUTLETNODE,Air,2
 Node,1179,OFFICE_OPEN_0_21_Z27_ZONEEQUIPMENTOUTLETNODE,Air,2
 Node,1180,OFFICE_OPEN_0_22_Z28_ZONEEQUIPMENTOUTLETNODE,Air,2
 Node,1181,OFFICE_OPEN_0_23_Z29_ZONEEQUIPMENTOUTLETNODE,Air,2
 Node,1182,LOBBY_1_Z30_ZONEEQUIPMENTOUTLETNODE,Air,2
 Node,1183,CONFERENCE_1_Z31_ZONEEQUIPMENTOUTLETNODE,Air,2
 Node,1184,BREAK_ROOM_1_Z32_ZONEEQUIPMENTOUTLETNODE,Air,2
 Node,1185,MECHANICAL_1_Z33_ZONEEQUIPMENTOUTLETNODE,Air,2
 Node,1186,OFFICE_OPEN_1_Z34_ZONEEQUIPMENTOUTLETNODE,Air,2
 Node,1187,OFFICE_PRIVATE_1_Z35_ZONEEQUIPMENTOUTLETNODE,Air,2
 Node,1188,STORAGE_1_Z36_ZONEEQUIPMENTOUTLETNODE,Air,2
 Node,1189,OFFICE_OPEN_1_2_Z37_ZONEEQUIPMENTOUTLETNODE,Air,2
 Node,1190,OFFICE_OPEN_1_3_Z38_ZONEEQUIPMENTOUTLETNODE,Air,2
 Node,1191,OFFICE_OPEN_1_4_Z39_ZONEEQUIPMENTOUTLETNODE,Air,2
 Node,1192,OFFICE_OPEN_1_5_Z40_ZONEEQUIPMENTOUTLETNODE,Air,2
 Node,1193,OFFICE_OPEN_1_6_Z41_ZONEEQUIPMENTOUTLETNODE,Air,2
 Node,1194,OFFICE_OPEN_1_7_Z42_ZONEEQUIPMENTOUTLETNODE,Air,2
 Node,1195,OFFICE_OPEN_1_8_Z43_ZONEEQUIPMENTOUTLETNODE,Air,2
 Node,1196,OFFICE_OPEN_1_9_Z44_ZONEEQUIPMENTOUTLETNODE,Air,2
 Node,1197,OFFICE_OPEN_1_10_Z45_ZONEEQUIPMENTOUTLETNODE,Air,2
 Node,1198,OFFICE_OPEN_1_11_Z46_ZONEEQUIPMENTOUTLETNODE,Air,2
 Node,1199,OFFICE_OPEN_1_12_Z47_ZONEEQUIPMENTOUTLETNODE,Air,2
 Node,1200,OFFICE_OPEN_1_13_Z48_ZONEEQUIPMENTOUTLETNODE,Air,2
 Node,1201,OFFICE_OPEN_1_14_Z49_ZONEEQUIPMENTOUTLETNODE,Air,2
 Node,1202,OFFICE_OPEN_1_15_Z50_ZONEEQUIPMENTOUTLETNODE,Air,2
 Node,1203,OFFICE_OPEN_1_16_Z51_ZONEEQUIPMENTOUTLETNODE,Air,2
 Node,1204,OFFICE_OPEN_1_17_Z52_ZONEEQUIPMENTOUTLETNODE,Air,2
 Node,1205,OFFICE_OPEN_1_18_Z53_ZONEEQUIPMENTOUTLETNODE,Air,2
 Node,1206,OFFICE_OPEN_1_19_Z54_ZONEEQUIPMENTOUTLETNODE,Air,2
 Node,1207,OFFICE_OPEN_1_20_Z55_ZONEEQUIPMENTOUTLETNODE,Air,2
 Node,1208,OFFICE_OPEN_1_21_Z56_ZONEEQUIPMENTOUTLETNODE,Air,2
 Node,1209,OFFICE_OPEN_1_22_Z57_ZONEEQUIPMENTOUTLETNODE,Air,2
 Node,1210,OFFICE_OPEN_1_23_Z58_ZONEEQUIPMENTOUTLETNODE,Air,2
 Node,1211,LOBBY_2_Z59_ZONEEQUIPMENTOUTLETNODE,Air,2
 Node,1212,CONFERENCE_2_Z60_ZONEEQUIPMENTOUTLETNODE,Air,2
 Node,1213,BREAK_ROOM_2_Z61_ZONEEQUIPMENTOUTLETNODE,Air,2
 Node,1214,MECHANICAL_2_Z62_ZONEEQUIPMENTOUTLETNODE,Air,2
 Node,1215,OFFICE_OPEN_2_Z63_ZONEEQUIPMENTOUTLETNODE,Air,2
 Node,1216,OFFICE_PRIVATE_2_Z64_ZONEEQUIPMENTOUTLETNODE,Air,2
 Node,1217,STORAGE_2_Z65_ZONEEQUIPMENTOUTLETNODE,Air,2
 Node,1218,OFFICE_OPEN_2_2_Z66_ZONEEQUIPMENTOUTLETNODE,Air,2
 Node,1219,OFFICE_OPEN_2_3_Z67_ZONEEQUIPMENTOUTLETNODE,Air,2
 Node,1220,OFFICE_OPEN_2_4_Z68_ZONEEQUIPMENTOUTLETNODE,Air,2
 Node,1221,OFFICE_OPEN_2_5_Z69_ZONEEQUIPMENTOUTLETNODE,Air,2
 Node,1222,OFFICE_OPEN_2_6_Z70_ZONEEQUIPMENTOUTLETNODE,Air,2
 Node,1223,OFFICE_OPEN_2_7_Z71_ZONEEQUIPMENTOUTLETNODE,Air,2
 Node,1224,OFFICE_OPEN_2_8_Z72_ZONEEQUIPMENTOUTLETNODE,Air,2
 Node,1225,OFFICE_OPEN_2_9_Z73_ZONEEQUIPMENTOUTLETNODE,Air,2
 Node,1226,OFFICE_OPEN_2_10_Z74_ZONEEQUIPMENTOUTLETNODE,Air,2
 Node,1227,OFFICE_OPEN_2_11_Z75_ZONEEQUIPMENTOUTLETNODE,Air,2
 Node,1228,OFFICE_OPEN_2_12_Z76_ZONEEQUIPMENTOUTLETNODE,Air,2
 Node,1229,OFFICE_OPEN_2_13_Z77_ZONEEQUIPMENTOUTLETNODE,Air,2
 Node,1230,OFFICE_OPEN_2_14_Z78_ZONEEQUIPMENTOUTLETNODE,Air,2
 Node,1231,OFFICE_OPEN_2_15_Z79_ZONEEQUIPMENTOUTLETNODE,Air,2
 Node,1232,OFFICE_OPEN_2_16_Z80_ZONEEQUIPMENTOUTLETNODE,Air,2
 Node,1233,OFFICE_OPEN_2_17_Z81_ZONEEQUIPMENTOUTLETNODE,Air,2
 Node,1234,OFFICE_OPEN_2_18_Z82_ZONEEQUIPMENTOUTLETNODE,Air,2
 Node,1235,OFFICE_OPEN_2_19_Z83_ZONEEQUIPMENTOUTLETNODE,Air,2
 Node,1236,OFFICE_OPEN_2_20_Z84_ZONEEQUIPMENTOUTLETNODE,Air,2
 Node,1237,OFFICE_OPEN_2_21_Z85_ZONEEQUIPMENTOUTLETNODE,Air,2
 Node,1238,OFFICE_OPEN_2_22_Z86_ZONEEQUIPMENTOUTLETNODE,Air,2
 Node,1239,OFFICE_OPEN_2_23_Z87_ZONEEQUIPMENTOUTLETNODE,Air,2
 Node,1240,LOBBY_3_Z88_ZONEEQUIPMENTOUTLETNODE,Air,2
 Node,1241,CONFERENCE_3_Z89_ZONEEQUIPMENTOUTLETNODE,Air,2
 Node,1242,BREAK_ROOM_3_Z90_ZONEEQUIPMENTOUTLETNODE,Air,2
 Node,1243,MECHANICAL_3_Z91_ZONEEQUIPMENTOUTLETNODE,Air,2
 Node,1244,OFFICE_OPEN_3_Z92_ZONEEQUIPMENTOUTLETNODE,Air,2
 Node,1245,OFFICE_PRIVATE_3_Z93_ZONEEQUIPMENTOUTLETNODE,Air,2
 Node,1246,STORAGE_3_Z94_ZONEEQUIPMENTOUTLETNODE,Air,2
 Node,1247,OFFICE_OPEN_3_2_Z95_ZONEEQUIPMENTOUTLETNODE,Air,2
 Node,1248,OFFICE_OPEN_3_3_Z96_ZONEEQUIPMENTOUTLETNODE,Air,2
 Node,1249,OFFICE_OPEN_3_4_Z97_ZONEEQUIPMENTOUTLETNODE,Air,2
 Node,1250,OFFICE_OPEN_3_5_Z98_ZONEEQUIPMENTOUTLETNODE,Air,2
 Node,1251,OFFICE_OPEN_3_6_Z99_ZONEEQUIPMENTOUTLETNODE,Air,2
 Node,1252,OFFICE_OPEN_3_7_Z100_ZONEEQUIPMENTOUTLETNODE,Air,2
 Node,1253,OFFICE_OPEN_3_8_Z101_ZONEEQUIPMENTOUTLETNODE,Air,2
 Node,1254,OFFICE_OPEN_3_9_Z102_ZONEEQUIPMENTOUTLETNODE,Air,2
 Node,1255,OFFICE_OPEN_3_10_Z103_ZONEEQUIPMENTOUTLETNODE,Air,2
 Node,1256,OFFICE_OPEN_3_11_Z104_ZONEEQUIPMENTOUTLETNODE,Air,2
 Node,1257,OFFICE_OPEN_3_12_Z105_ZONEEQUIPMENTOUTLETNODE,Air,2
 Node,1258,OFFICE_OPEN_3_13_Z106_ZONEEQUIPMENTOUTLETNODE,Air,2
 Node,1259,OFFICE_OPEN_3_14_Z107_ZONEEQUIPMENTOUTLETNODE,Air,2
 Node,1260,OFFICE_OPEN_3_15_Z108_ZONEEQUIPMENTOUTLETNODE,Air,2
 Node,1261,OFFICE_OPEN_3_16_Z109_ZONEEQUIPMENTOUTLETNODE,Air,2
 Node,1262,OFFICE_OPEN_3_17_Z110_ZONEEQUIPMENTOUTLETNODE,Air,2
 Node,1263,OFFICE_OPEN_3_18_Z111_ZONEEQUIPMENTOUTLETNODE,Air,2
 Node,1264,OFFICE_OPEN_3_19_Z112_ZONEEQUIPMENTOUTLETNODE,Air,2
 Node,1265,OFFICE_OPEN_3_20_Z113_ZONEEQUIPMENTOUTLETNODE,Air,2
 Node,1266,OFFICE_OPEN_3_21_Z114_ZONEEQUIPMENTOUTLETNODE,Air,2
 Node,1267,OFFICE_OPEN_3_22_Z115_ZONEEQUIPMENTOUTLETNODE,Air,2
 Node,1268,LOBBY_4_Z116_ZONEEQUIPMENTOUTLETNODE,Air,2
 Node,1269,CONFERENCE_4_Z117_ZONEEQUIPMENTOUTLETNODE,Air,2
 Node,1270,BREAK_ROOM_4_Z118_ZONEEQUIPMENTOUTLETNODE,Air,2
 Node,1271,MECHANICAL_4_Z119_ZONEEQUIPMENTOUTLETNODE,Air,2
 Node,1272,OFFICE_OPEN_4_Z120_ZONEEQUIPMENTOUTLETNODE,Air,2
 Node,1273,OFFICE_PRIVATE_4_Z121_ZONEEQUIPMENTOUTLETNODE,Air,2
 Node,1274,STORAGE_4_Z122_ZONEEQUIPMENTOUTLETNODE,Air,2
 Node,1275,OFFICE_OPEN_4_2_Z123_ZONEEQUIPMENTOUTLETNODE,Air,2
 Node,1276,OFFICE_OPEN_4_3_Z124_ZONEEQUIPMENTOUTLETNODE,Air,2
 Node,1277,OFFICE_OPEN_4_4_Z125_ZONEEQUIPMENTOUTLETNODE,Air,2
 Node,1278,OFFICE_OPEN_4_5_Z126_ZONEEQUIPMENTOUTLETNODE,Air,2
 Node,1279,OFFICE_OPEN_4_6_Z127_ZONEEQUIPMENTOUTLETNODE,Air,2
 Node,1280,OFFICE_OPEN_4_7_Z128_ZONEEQUIPMENTOUTLETNODE,Air,2
 Node,1281,OFFICE_OPEN_4_8_Z129_ZONEEQUIPMENTOUTLETNODE,Air,2
 Node,1282,OFFICE_OPEN_4_9_Z130_ZONEEQUIPMENTOUTLETNODE,Air,2
 Node,1283,OFFICE_OPEN_4_10_Z131_ZONEEQUIPMENTOUTLETNODE,Air,2
 Node,1284,OFFICE_OPEN_4_11_Z132_ZONEEQUIPMENTOUTLETNODE,Air,2
 Node,1285,OFFICE_OPEN_4_12_Z133_ZONEEQUIPMENTOUTLETNODE,Air,2
 Node,1286,OFFICE_OPEN_4_13_Z134_ZONEEQUIPMENTOUTLETNODE,Air,2
 Node,1287,OFFICE_OPEN_4_14_Z135_ZONEEQUIPMENTOUTLETNODE,Air,2
 Node,1288,OFFICE_OPEN_4_15_Z136_ZONEEQUIPMENTOUTLETNODE,Air,2
 Node,1289,OFFICE_OPEN_4_16_Z137_ZONEEQUIPMENTOUTLETNODE,Air,2
 Node,1290,OFFICE_OPEN_4_17_Z138_ZONEEQUIPMENTOUTLETNODE,Air,2
 Node,1291,OFFICE_OPEN_4_18_Z139_ZONEEQUIPMENTOUTLETNODE,Air,2
 Node,1292,OFFICE_OPEN_4_19_Z140_ZONEEQUIPMENTOUTLETNODE,Air,2
 Node,1293,OFFICE_OPEN_4_20_Z141_ZONEEQUIPMENTOUTLETNODE,Air,2
 Node,1294,OFFICE_OPEN_4_21_Z142_ZONEEQUIPMENTOUTLETNODE,Air,2
 Node,1295,OFFICE_OPEN_4_22_Z143_ZONEEQUIPMENTOUTLETNODE,Air,2
 Node,1296,OFFICE_OPEN_4_23_Z144_ZONEEQUIPMENTOUTLETNODE,Air,2
 Node,1297,LOBBY_0_Z1_TERMINALINLET,Air,1
 Node,1298,CONFERENCE_0_Z2_TERMINALINLET,Air,1
 Node,1299,BREAK_ROOM_0_Z3_TERMINALINLET,Air,1
 Node,1300,MECHANICAL_0_Z4_TERMINALINLET,Air,1
 Node,1301,OFFICE_OPEN_0_Z5_TERMINALINLET,Air,1
 Node,1302,OFFICE_PRIVATE_0_Z6_TERMINALINLET,Air,1
 Node,1303,STORAGE_0_Z7_TERMINALINLET,Air,1
 Node,1304,OFFICE_OPEN_0_2_Z8_TERMINALINLET,Air,1
 Node,1305,OFFICE_OPEN_0_3_Z9_TERMINALINLET,Air,1
 Node,1306,OFFICE_OPEN_0_4_Z10_TERMINALINLET,Air,1
 Node,1307,OFFICE_OPEN_0_5_Z11_TERMINALINLET,Air,1
 Node,1308,OFFICE_OPEN_0_6_Z12_TERMINALINLET,Air,1
 Node,1309,OFFICE_OPEN_0_7_Z13_TERMINALINLET,Air,1
 Node,1310,OFFICE_OPEN_0_8_Z14_TERMINALINLET,Air,1
 Node,1311,OFFICE_OPEN_0_9_Z15_TERMINALINLET,Air,1
 Node,1312,OFFICE_OPEN_0_10_Z16_TERMINALINLET,Air,1
 Node,1313,OFFICE_OPEN_0_11_Z17_TERMINALINLET,Air,1
 Node,1314,OFFICE_OPEN_0_12_Z18_TERMINALINLET,Air,1
 Node,1315,OFFICE_OPEN_0_13_Z19_TERMINALINLET,Air,1
 Node,1316,OFFICE_OPEN_0_14_Z20_TERMINALINLET,Air,1
 Node,1317,OFFICE_OPEN_0_15_Z21_TERMINALINLET,Air,1
 Node,1318,OFFICE_OPEN_0_16_Z22_TERMINALINLET,Air,1
 Node,1319,OFFICE_OPEN_0_17_Z23_TERMINALINLET,Air,1
 Node,1320,OFFICE_OPEN_0_18_Z24_TERMINALINLET,Air,1
 Node,1321,OFFICE_OPEN_0_19_Z25_TERMINALINLET,Air,1
 Node,1322,OFFICE_OPEN_0_20_Z26_TERMINALINLET,Air,1
 Node,1323,OFFICE_OPEN_0_21_Z27_TERMINALINLET,Air,1
 Node,1324,OFFICE_OPEN_0_22_Z28_TERMINALINLET,Air,1
 Node,1325,OFFICE_OPEN_0_23_Z29_TERMINALINLET,Air,1
 Node,1326,LOBBY_1_Z30_TERMINALINLET,Air,1
 Node,1327,CONFERENCE_1_Z31_TERMINALINLET,Air,1
 Node,1328,BREAK_ROOM_1_Z32_TERMINALINLET,Air,1
 Node,1329,MECHANICAL_1_Z33_TERMINALINLET,Air,1
 Node,1330,OFFICE_OPEN_1_Z34_TERMINALINLET,Air,1
 Node,1331,OFFICE_PRIVATE_1_Z35_TERMINALINLET,Air,1
 Node,1332,STORAGE_1_Z36_TERMINALINLET,Air,1
 Node,1333,OFFICE_OPEN_1_2_Z37_TERMINALINLET,Air,1
 Node,1334,OFFICE_OPEN_1_3_Z38_TERMINALINLET,Air,1
 Node,1335,OFFICE_OPEN_1_4_Z39_TERMINALINLET,Air,1
 Node,1336,OFFICE_OPEN_1_5_Z40_TERMINALINLET,Air,1
 Node,1337,OFFICE_OPEN_1_6_Z41_TERMINALINLET,Air,1
 Node,1338,OFFICE_OPEN_1_7_Z42_TERMINALINLET,Air,1
 Node,1339,OFFICE_OPEN_1_8_Z43_TERMINALINLET,Air,1
 Node,1340,OFFICE_OPEN_1_9_Z44_TERMINALINLET,Air,1
 Node,1341,OFFICE_OPEN_1_10_Z45_TERMINALINLET,Air,1
 Node,1342,OFFICE_OPEN_1_11_Z46_TERMINALINLET,Air,1
 Node,1343,OFFICE_OPEN_1_12_Z47_TERMINALINLET,Air,1
 Node,1344,OFFICE_OPEN_1_13_Z48_TERMINALINLET,Air,1
 Node,1345,OFFICE_OPEN_1_14_Z49_TERMINALINLET,Air,1
 Node,1346,OFFICE_OPEN_1_15_Z50_TERMINALINLET,Air,1
 Node,1347,OFFICE_OPEN_1_16_Z51_TERMINALINLET,Air,1
 Node,1348,OFFICE_OPEN_1_17_Z52_TERMINALINLET,Air,1
 Node,1349,OFFICE_OPEN_1_18_Z53_TERMINALINLET,Air,1
 Node,1350,OFFICE_OPEN_1_19_Z54_TERMINALINLET,Air,1
 Node,1351,OFFICE_OPEN_1_20_Z55_TERMINALINLET,Air,1
 Node,1352,OFFICE_OPEN_1_21_Z56_TERMINALINLET,Air,1
 Node,1353,OFFICE_OPEN_1_22_Z57_TERMINALINLET,Air,1
 Node,1354,OFFICE_OPEN_1_23_Z58_TERMINALINLET,Air,1
 Node,1355,LOBBY_2_Z59_TERMINALINLET,Air,1
 Node,1356,CONFERENCE_2_Z60_TERMINALINLET,Air,1
 Node,1357,BREAK_ROOM_2_Z61_TERMINALINLET,Air,1
 Node,1358,MECHANICAL_2_Z62_TERMINALINLET,Air,1
 Node,1359,OFFICE_OPEN_2_Z63_TERMINALINLET,Air,1
 Node,1360,OFFICE_PRIVATE_2_Z64_TERMINALINLET,Air,1
 Node,1361,STORAGE_2_Z65_TERMINALINLET,Air,1
 Node,1362,OFFICE_OPEN_2_2_Z66_TERMINALINLET,Air,1
 Node,1363,OFFICE_OPEN_2_3_Z67_TERMINALINLET,Air,1
 Node,1364,OFFICE_OPEN_2_4_Z68_TERMINALINLET,Air,1
 Node,1365,OFFICE_OPEN_2_5_Z69_TERMINALINLET,Air,1
 Node,1366,OFFICE_OPEN_2_6_Z70_TERMINALINLET,Air,1
 Node,1367,OFFICE_OPEN_2_7_Z71_TERMINALINLET,Air,1
 Node,1368,OFFICE_OPEN_2_8_Z72_TERMINALINLET,Air,1
 Node,1369,OFFICE_OPEN_2_9_Z73_TERMINALINLET,Air,1
 Node,1370,OFFICE_OPEN_2_10_Z74_TERMINALINLET,Air,1
 Node,1371,OFFICE_OPEN_2_11_Z75_TERMINALINLET,Air,1
 Node,1372,OFFICE_OPEN_2_12_Z76_TERMINALINLET,Air,1
 Node,1373,OFFICE_OPEN_2_13_Z77_TERMINALINLET,Air,1
 Node,1374,OFFICE_OPEN_2_14_Z78_TERMINALINLET,Air,1
 Node,1375,OFFICE_OPEN_2_15_Z79_TERMINALINLET,Air,1
 Node,1376,OFFICE_OPEN_2_16_Z80_TERMINALINLET,Air,1
 Node,1377,OFFICE_OPEN_2_17_Z81_TERMINALINLET,Air,1
 Node,1378,OFFICE_OPEN_2_18_Z82_TERMINALINLET,Air,1
 Node,1379,OFFICE_OPEN_2_19_Z83_TERMINALINLET,Air,1
 Node,1380,OFFICE_OPEN_2_20_Z84_TERMINALINLET,Air,1
 Node,1381,OFFICE_OPEN_2_21_Z85_TERMINALINLET,Air,1
 Node,1382,OFFICE_OPEN_2_22_Z86_TERMINALINLET,Air,1
 Node,1383,OFFICE_OPEN_2_23_Z87_TERMINALINLET,Air,1
 Node,1384,LOBBY_3_Z88_TERMINALINLET,Air,1
 Node,1385,CONFERENCE_3_Z89_TERMINALINLET,Air,1
 Node,1386,BREAK_ROOM_3_Z90_TERMINALINLET,Air,1
 Node,1387,MECHANICAL_3_Z91_TERMINALINLET,Air,1
 Node,1388,OFFICE_OPEN_3_Z92_TERMINALINLET,Air,1
 Node,1389,OFFICE_PRIVATE_3_Z93_TERMINALINLET,Air,1
 Node,1390,STORAGE_3_Z94_TERMINALINLET,Air,1
 Node,1391,OFFICE_OPEN_3_2_Z95_TERMINALINLET,Air,1
 Node,1392,OFFICE_OPEN_3_3_Z96_TERMINALINLET,Air,1
 Node,1393,OFFICE_OPEN_3_4_Z97_TERMINALINLET,Air,1
 Node,1394,OFFICE_OPEN_3_5_Z98_TERMINALINLET,Air,1
 Node,1395,OFFICE_OPEN_3_6_Z99_TERMINALINLET,Air,1
 Node,1396,OFFICE_OPEN_3_7_Z100_TERMINALINLET,Air,1
 Node,1397,OFFICE_OPEN_3_8_Z101_TERMINALINLET,Air,1
 Node,1398,OFFICE_OPEN_3_9_Z102_TERMINALINLET,Air,1
 Node,1399,OFFICE_OPEN_3_10_Z103_TERMINALINLET,Air,1
 Node,1400,OFFICE_OPEN_3_11_Z104_TERMINALINLET,Air,1
 Node,1401,OFFICE_OPEN_3_12_Z105_TERMINALINLET,Air,1
 Node,1402,OFFICE_OPEN_3_13_Z106_TERMINALINLET,Air,1
 Node,1403,OFFICE_OPEN_3_14_Z107_TERMINALINLET,Air,1
 Node,1404,OFFICE_OPEN_3_15_Z108_TERMINALINLET,Air,1
 Node,1405,OFFICE_OPEN_3_16_Z109_TERMINALINLET,Air,1
 Node,1406,OFFICE_OPEN_3_17_Z110_TERMINALINLET,Air,1
 Node,1407,OFFICE_OPEN_3_18_Z111_TERMINALINLET,Air,1
 Node,1408,OFFICE_OPEN_3_19_Z112_TERMINALINLET,Air,1
 Node,1409,OFFICE_OPEN_3_20_Z113_TERMINALINLET,Air,1
 Node,1410,OFFICE_OPEN_3_21_Z114_TERMINALINLET,Air,1
 Node,1411,OFFICE_OPEN_3_22_Z115_TERMINALINLET,Air,1
 Node,1412,LOBBY_4_Z116_TERMINALINLET,Air,1
 Node,1413,CONFERENCE_4_Z117_TERMINALINLET,Air,1
 Node,1414,BREAK_ROOM_4_Z118_TERMINALINLET,Air,1
 Node,1415,MECHANICAL_4_Z119_TERMINALINLET,Air,1
 Node,1416,OFFICE_OPEN_4_Z120_TERMINALINLET,Air,1
 Node,1417,OFFICE_PRIVATE_4_Z121_TERMINALINLET,Air,1
 Node,1418,STORAGE_4_Z122_TERMINALINLET,Air,1
 Node,1419,OFFICE_OPEN_4_2_Z123_TERMINALINLET,Air,1
 Node,1420,OFFICE_OPEN_4_3_Z124_TERMINALINLET,Air,1
 Node,1421,OFFICE_OPEN_4_4_Z125_TERMINALINLET,Air,1
 Node,1422,OFFICE_OPEN_4_5_Z126_TERMINALINLET,Air,1
 Node,1423,OFFICE_OPEN_4_6_Z127_TERMINALINLET,Air,1
 Node,1424,OFFICE_OPEN_4_7_Z128_TERMINALINLET,Air,1
 Node,1425,OFFICE_OPEN_4_8_Z129_TERMINALINLET,Air,1
 Node,1426,OFFICE_OPEN_4_9_Z130_TERMINALINLET,Air,1
 Node,1427,OFFICE_OPEN_4_10_Z131_TERMINALINLET,Air,1
 Node,1428,OFFICE_OPEN_4_11_Z132_TERMINALINLET,Air,1
 Node,1429,OFFICE_OPEN_4_12_Z133_TERMINALINLET,Air,1
 Node,1430,OFFICE_OPEN_4_13_Z134_TERMINALINLET,Air,1
 Node,1431,OFFICE_OPEN_4_14_Z135_TERMINALINLET,Air,1
 Node,1432,OFFICE_OPEN_4_15_Z136_TERMINALINLET,Air,1
 Node,1433,OFFICE_OPEN_4_16_Z137_TERMINALINLET,Air,1
 Node,1434,OFFICE_OPEN_4_17_Z138_TERMINALINLET,Air,1
 Node,1435,OFFICE_OPEN_4_18_Z139_TERMINALINLET,Air,1
 Node,1436,OFFICE_OPEN_4_19_Z140_TERMINALINLET,Air,1
 Node,1437,OFFICE_OPEN_4_20_Z141_TERMINALINLET,Air,1
 Node,1438,OFFICE_OPEN_4_21_Z142_TERMINALINLET,Air,1
 Node,1439,OFFICE_OPEN_4_22_Z143_TERMINALINLET,Air,1
 Node,1440,OFFICE_OPEN_4_23_Z144_TERMINALINLET,Air,1
 Node,1441,LOBBY_0_Z1_TERMINALOUTLET,Air,1
 Node,1442,CONFERENCE_0_Z2_TERMINALOUTLET,Air,1
 Node,1443,BREAK_ROOM_0_Z3_TERMINALOUTLET,Air,1
 Node,1444,MECHANICAL_0_Z4_TERMINALOUTLET,Air,1
 Node,1445,OFFICE_OPEN_0_Z5_TERMINALOUTLET,Air,1
 Node,1446,OFFICE_PRIVATE_0_Z6_TERMINALOUTLET,Air,1
 Node,1447,STORAGE_0_Z7_TERMINALOUTLET,Air,1
 Node,1448,OFFICE_OPEN_0_2_Z8_TERMINALOUTLET,Air,1
 Node,1449,OFFICE_OPEN_0_3_Z9_TERMINALOUTLET,Air,1
 Node,1450,OFFICE_OPEN_0_4_Z10_TERMINALOUTLET,Air,1
 Node,1451,OFFICE_OPEN_0_5_Z11_TERMINALOUTLET,Air,1
 Node,1452,OFFICE_OPEN_0_6_Z12_TERMINALOUTLET,Air,1
 Node,1453,OFFICE_OPEN_0_7_Z13_TERMINALOUTLET,Air,1
 Node,1454,OFFICE_OPEN_0_8_Z14_TERMINALOUTLET,Air,1
 Node,1455,OFFICE_OPEN_0_9_Z15_TERMINALOUTLET,Air,1
 Node,1456,OFFICE_OPEN_0_10_Z16_TERMINALOUTLET,Air,1
 Node,1457,OFFICE_OPEN_0_11_Z17_TERMINALOUTLET,Air,1
 Node,1458,OFFICE_OPEN_0_12_Z18_TERMINALOUTLET,Air,1
 Node,1459,OFFICE_OPEN_0_13_Z19_TERMINALOUTLET,Air,1
 Node,1460,OFFICE_OPEN_0_14_Z20_TERMINALOUTLET,Air,1
 Node,1461,OFFICE_OPEN_0_15_Z21_TERMINALOUTLET,Air,1
 Node,1462,OFFICE_OPEN_0_16_Z22_TERMINALOUTLET,Air,1
 Node,1463,OFFICE_OPEN_0_17_Z23_TERMINALOUTLET,Air,1
 Node,1464,OFFICE_OPEN_0_18_Z24_TERMINALOUTLET,Air,1
 Node,1465,OFFICE_OPEN_0_19_Z25_TERMINALOUTLET,Air,1
 Node,1466,OFFICE_OPEN_0_20_Z26_TERMINALOUTLET,Air,1
 Node,1467,OFFICE_OPEN_0_21_Z27_TERMINALOUTLET,Air,1
 Node,1468,OFFICE_OPEN_0_22_Z28_TERMINALOUTLET,Air,1
 Node,1469,OFFICE_OPEN_0_23_Z29_TERMINALOUTLET,Air,1
 Node,1470,LOBBY_1_Z30_TERMINALOUTLET,Air,1
 Node,1471,CONFERENCE_1_Z31_TERMINALOUTLET,Air,1
 Node,1472,BREAK_ROOM_1_Z32_TERMINALOUTLET,Air,1
 Node,1473,MECHANICAL_1_Z33_TERMINALOUTLET,Air,1
 Node,1474,OFFICE_OPEN_1_Z34_TERMINALOUTLET,Air,1
 Node,1475,OFFICE_PRIVATE_1_Z35_TERMINALOUTLET,Air,1
 Node,1476,STORAGE_1_Z36_TERMINALOUTLET,Air,1
 Node,1477,OFFICE_OPEN_1_2_Z37_TERMINALOUTLET,Air,1
 Node,1478,OFFICE_OPEN_1_3_Z38_TERMINALOUTLET,Air,1
 Node,1479,OFFICE_OPEN_1_4_Z39_TERMINALOUTLET,Air,1
 Node,1480,OFFICE_OPEN_1_5_Z40_TERMINALOUTLET,Air,1
 Node,1481,OFFICE_OPEN_1_6_Z41_TERMINALOUTLET,Air,1
 Node,1482,OFFICE_OPEN_1_7_Z42_TERMINALOUTLET,Air,1
 Node,1483,OFFICE_OPEN_1_8_Z43_TERMINALOUTLET,Air,1
 Node,1484,OFFICE_OPEN_1_9_Z44_TERMINALOUTLET,Air,1
 Node,1485,OFFICE_OPEN_1_10_Z45_TERMINALOUTLET,Air,1
 Node,1486,OFFICE_OPEN_1_11_Z46_TERMINALOUTLET,Air,1
 Node,1487,OFFICE_OPEN_1_12_Z47_TERMINALOUTLET,Air,1
 Node,1488,OFFICE_OPEN_1_13_Z48_TERMINALOUTLET,Air,1
 Node,1489,OFFICE_OPEN_1_14_Z49_TERMINALOUTLET,Air,1
 Node,1490,OFFICE_OPEN_1_15_Z50_TERMINALOUTLET,Air,1
 Node,1491,OFFICE_OPEN_1_16_Z51_TERMINALOUTLET,Air,1
 Node,1492,OFFICE_OPEN_1_17_Z52_TERMINALOUTLET,Air,1
 Node,1493,OFFICE_OPEN_1_18_Z53_TERMINALOUTLET,Air,1
 Node,1494,OFFICE_OPEN_1_19_Z54_TERMINALOUTLET,Air,1
 Node,1495,OFFICE_OPEN_1_20_Z55_TERMINALOUTLET,Air,1
 Node,1496,OFFICE_OPEN_1_21_Z56_TERMINALOUTLET,Air,1
 Node,1497,OFFICE_OPEN_1_22_Z57_TERMINALOUTLET,Air,1
 Node,1498,OFFICE_OPEN_1_23_Z58_TERMINALOUTLET,Air,1
 Node,1499,LOBBY_2_Z59_TERMINALOUTLET,Air,1
 Node,1500,CONFERENCE_2_Z60_TERMINALOUTLET,Air,1
 Node,1501,BREAK_ROOM_2_Z61_TERMINALOUTLET,Air,1
 Node,1502,MECHANICAL_2_Z62_TERMINALOUTLET,Air,1
 Node,1503,OFFICE_OPEN_2_Z63_TERMINALOUTLET,Air,1
 Node,1504,OFFICE_PRIVATE_2_Z64_TERMINALOUTLET,Air,1
 Node,1505,STORAGE_2_Z65_TERMINALOUTLET,Air,1
 Node,1506,OFFICE_OPEN_2_2_Z66_TERMINALOUTLET,Air,1
 Node,1507,OFFICE_OPEN_2_3_Z67_TERMINALOUTLET,Air,1
 Node,1508,OFFICE_OPEN_2_4_Z68_TERMINALOUTLET,Air,1
 Node,1509,OFFICE_OPEN_2_5_Z69_TERMINALOUTLET,Air,1
 Node,1510,OFFICE_OPEN_2_6_Z70_TERMINALOUTLET,Air,1
 Node,1511,OFFICE_OPEN_2_7_Z71_TERMINALOUTLET,Air,1
 Node,1512,OFFICE_OPEN_2_8_Z72_TERMINALOUTLET,Air,1
 Node,1513,OFFICE_OPEN_2_9_Z73_TERMINALOUTLET,Air,1
 Node,1514,OFFICE_OPEN_2_10_Z74_TERMINALOUTLET,Air,1
 Node,1515,OFFICE_OPEN_2_11_Z75_TERMINALOUTLET,Air,1
 Node,1516,OFFICE_OPEN_2_12_Z76_TERMINALOUTLET,Air,1
 Node,1517,OFFICE_OPEN_2_13_Z77_TERMINALOUTLET,Air,1
 Node,1518,OFFICE_OPEN_2_14_Z78_TERMINALOUTLET,Air,1
 Node,1519,OFFICE_OPEN_2_15_Z79_TERMINALOUTLET,Air,1
 Node,1520,OFFICE_OPEN_2_16_Z80_TERMINALOUTLET,Air,1
 Node,1521,OFFICE_OPEN_2_17_Z81_TERMINALOUTLET,Air,1
 Node,1522,OFFICE_OPEN_2_18_Z82_TERMINALOUTLET,Air,1
 Node,1523,OFFICE_OPEN_2_19_Z83_TERMINALOUTLET,Air,1
 Node,1524,OFFICE_OPEN_2_20_Z84_TERMINALOUTLET,Air,1
 Node,1525,OFFICE_OPEN_2_21_Z85_TERMINALOUTLET,Air,1
 Node,1526,OFFICE_OPEN_2_22_Z86_TERMINALOUTLET,Air,1
 Node,1527,OFFICE_OPEN_2_23_Z87_TERMINALOUTLET,Air,1
 Node,1528,LOBBY_3_Z88_TERMINALOUTLET,Air,1
 Node,1529,CONFERENCE_3_Z89_TERMINALOUTLET,Air,1
 Node,1530,BREAK_ROOM_3_Z90_TERMINALOUTLET,Air,1
 Node,1531,MECHANICAL_3_Z91_TERMINALOUTLET,Air,1
 Node,1532,OFFICE_OPEN_3_Z92_TERMINALOUTLET,Air,1
 Node,1533,OFFICE_PRIVATE_3_Z93_TERMINALOUTLET,Air,1
 Node,1534,STORAGE_3_Z94_TERMINALOUTLET,Air,1
 Node,1535,OFFICE_OPEN_3_2_Z95_TERMINALOUTLET,Air,1
 Node,1536,OFFICE_OPEN_3_3_Z96_TERMINALOUTLET,Air,1
 Node,1537,OFFICE_OPEN_3_4_Z97_TERMINALOUTLET,Air,1
 Node,1538,OFFICE_OPEN_3_5_Z98_TERMINALOUTLET,Air,1
 Node,1539,OFFICE_OPEN_3_6_Z99_TERMINALOUTLET,Air,1
 Node,1540,OFFICE_OPEN_3_7_Z100_TERMINALOUTLET,Air,1
 Node,1541,OFFICE_OPEN_3_8_Z101_TERMINALOUTLET,Air,1
 Node,1542,OFFICE_OPEN_3_9_Z102_TERMINALOUTLET,Air,1
 Node,1543,OFFICE_OPEN_3_10_Z103_TERMINALOUTLET,Air,1
 Node,1544,OFFICE_OPEN_3_11_Z104_TERMINALOUTLET,Air,1
 Node,1545,OFFICE_OPEN_3_12_Z105_TERMINALOUTLET,Air,1
 Node,1546,OFFICE_OPEN_3_13_Z106_TERMINALOUTLET,Air,1
 Node,1547,OFFICE_OPEN_3_14_Z107_TERMINALOUTLET,Air,1
 Node,1548,OFFICE_OPEN_3_15_Z108_TERMINALOUTLET,Air,1
 Node,1549,OFFICE_OPEN_3_16_Z109_TERMINALOUTLET,Air,1
 Node,1550,OFFICE_OPEN_3_17_Z110_TERMINALOUTLET,Air,1
 Node,1551,OFFICE_OPEN_3_18_Z111_TERMINALOUTLET,Air,1
[...]
 Non-Parent Node Connection,OFFICE_OPEN_1_20_Z55_COOLC-HEATCNODE,COIL:COOLING:DX:SINGLESPEED,OFFICE_OPEN_1_20_Z55_COOLINGCOILDX,Outlet,1
 Non-Parent Node Connection,OFFICE_OPEN_1_21_Z56_SUPPLYINLET,COIL:COOLING:DX:SINGLESPEED,OFFICE_OPEN_1_21_Z56_COOLINGCOILDX,Inlet,1
 Non-Parent Node Connection,OFFICE_OPEN_1_21_Z56_COOLC-HEATCNODE,COIL:COOLING:DX:SINGLESPEED,OFFICE_OPEN_1_21_Z56_COOLINGCOILDX,Outlet,1
 Non-Parent Node Connection,OFFICE_OPEN_1_22_Z57_SUPPLYINLET,COIL:COOLING:DX:SINGLESPEED,OFFICE_OPEN_1_22_Z57_COOLINGCOILDX,Inlet,1
 Non-Parent Node Connection,OFFICE_OPEN_1_22_Z57_COOLC-HEATCNODE,COIL:COOLING:DX:SINGLESPEED,OFFICE_OPEN_1_22_Z57_COOLINGCOILDX,Outlet,1
 Non-Parent Node Connection,OFFICE_OPEN_1_23_Z58_SUPPLYINLET,COIL:COOLING:DX:SINGLESPEED,OFFICE_OPEN_1_23_Z58_COOLINGCOILDX,Inlet,1
 Non-Parent Node Connection,OFFICE_OPEN_1_23_Z58_COOLC-HEATCNODE,COIL:COOLING:DX:SINGLESPEED,OFFICE_OPEN_1_23_Z58_COOLINGCOILDX,Outlet,1
 Non-Parent Node Connection,LOBBY_2_Z59_SUPPLYINLET,COIL:COOLING:DX:SINGLESPEED,LOBBY_2_Z59_COOLINGCOILDX,Inlet,1
 Non-Parent Node Connection,LOBBY_2_Z59_COOLC-HEATCNODE,COIL:COOLING:DX:SINGLESPEED,LOBBY_2_Z59_COOLINGCOILDX,Outlet,1
 Non-Parent Node Connection,CONFERENCE_2_Z60_SUPPLYINLET,COIL:COOLING:DX:SINGLESPEED,CONFERENCE_2_Z60_COOLINGCOILDX,Inlet,1
 Non-Parent Node Connection,CONFERENCE_2_Z60_COOLC-HEATCNODE,COIL:COOLING:DX:SINGLESPEED,CONFERENCE_2_Z60_COOLINGCOILDX,Outlet,1
 Non-Parent Node Connection,BREAK_ROOM_2_Z61_SUPPLYINLET,COIL:COOLING:DX:SINGLESPEED,BREAK_ROOM_2_Z61_COOLINGCOILDX,Inlet,1
 Non-Parent Node Connection,BREAK_ROOM_2_Z61_COOLC-HEATCNODE,COIL:COOLING:DX:SINGLESPEED,BREAK_ROOM_2_Z61_COOLINGCOILDX,Outlet,1
 Non-Parent Node Connection,MECHANICAL_2_Z62_SUPPLYINLET,COIL:COOLING:DX:SINGLESPEED,MECHANICAL_2_Z62_COOLINGCOILDX,Inlet,1
 Non-Parent Node Connection,MECHANICAL_2_Z62_COOLC-HEATCNODE,COIL:COOLING:DX:SINGLESPEED,MECHANICAL_2_Z62_COOLINGCOILDX,Outlet,1
 Non-Parent Node Connection,OFFICE_OPEN_2_Z63_SUPPLYINLET,COIL:COOLING:DX:SINGLESPEED,OFFICE_OPEN_2_Z63_COOLINGCOILDX,Inlet,1
 Non-Parent Node Connection,OFFICE_OPEN_2_Z63_COOLC-HEATCNODE,COIL:COOLING:DX:SINGLESPEED,OFFICE_OPEN_2_Z63_COOLINGCOILDX,Outlet,1
 Non-Parent Node Connection,OFFICE_PRIVATE_2_Z64_SUPPLYINLET,COIL:COOLING:DX:SINGLESPEED,OFFICE_PRIVATE_2_Z64_COOLINGCOILDX,Inlet,1
 Non-Parent Node Connection,OFFICE_PRIVATE_2_Z64_COOLC-HEATCNODE,COIL:COOLING:DX:SINGLESPEED,OFFICE_PRIVATE_2_Z64_COOLINGCOILDX,Outlet,1
 Non-Parent Node Connection,STORAGE_2_Z65_SUPPLYINLET,COIL:COOLING:DX:SINGLESPEED,STORAGE_2_Z65_COOLINGCOILDX,Inlet,1
 Non-Parent Node Connection,STORAGE_2_Z65_COOLC-HEATCNODE,COIL:COOLING:DX:SINGLESPEED,STORAGE_2_Z65_COOLINGCOILDX,Outlet,1
 Non-Parent Node Connection,OFFICE_OPEN_2_2_Z66_SUPPLYINLET,COIL:COOLING:DX:SINGLESPEED,OFFICE_OPEN_2_2_Z66_COOLINGCOILDX,Inlet,1
 Non-Parent Node Connection,OFFICE_OPEN_2_2_Z66_COOLC-HEATCNODE,COIL:COOLING:DX:SINGLESPEED,OFFICE_OPEN_2_2_Z66_COOLINGCOILDX,Outlet,1
 Non-Parent Node Connection,OFFICE_OPEN_2_3_Z67_SUPPLYINLET,COIL:COOLING:DX:SINGLESPEED,OFFICE_OPEN_2_3_Z67_COOLINGCOILDX,Inlet,1
 Non-Parent Node Connection,OFFICE_OPEN_2_3_Z67_COOLC-HEATCNODE,COIL:COOLING:DX:SINGLESPEED,OFFICE_OPEN_2_3_Z67_COOLINGCOILDX,Outlet,1
 Non-Parent Node Connection,OFFICE_OPEN_2_4_Z68_SUPPLYINLET,COIL:COOLING:DX:SINGLESPEED,OFFICE_OPEN_2_4_Z68_COOLINGCOILDX,Inlet,1
 Non-Parent Node Connection,OFFICE_OPEN_2_4_Z68_COOLC-HEATCNODE,COIL:COOLING:DX:SINGLESPEED,OFFICE_OPEN_2_4_Z68_COOLINGCOILDX,Outlet,1
 Non-Parent Node Connection,OFFICE_OPEN_2_5_Z69_SUPPLYINLET,COIL:COOLING:DX:SINGLESPEED,OFFICE_OPEN_2_5_Z69_COOLINGCOILDX,Inlet,1
 Non-Parent Node Connection,OFFICE_OPEN_2_5_Z69_COOLC-HEATCNODE,COIL:COOLING:DX:SINGLESPEED,OFFICE_OPEN_2_5_Z69_COOLINGCOILDX,Outlet,1
 Non-Parent Node Connection,OFFICE_OPEN_2_6_Z70_SUPPLYINLET,COIL:COOLING:DX:SINGLESPEED,OFFICE_OPEN_2_6_Z70_COOLINGCOILDX,Inlet,1
 Non-Parent Node Connection,OFFICE_OPEN_2_6_Z70_COOLC-HEATCNODE,COIL:COOLING:DX:SINGLESPEED,OFFICE_OPEN_2_6_Z70_COOLINGCOILDX,Outlet,1
 Non-Parent Node Connection,OFFICE_OPEN_2_7_Z71_SUPPLYINLET,COIL:COOLING:DX:SINGLESPEED,OFFICE_OPEN_2_7_Z71_COOLINGCOILDX,Inlet,1
 Non-Parent Node Connection,OFFICE_OPEN_2_7_Z71_COOLC-HEATCNODE,COIL:COOLING:DX:SINGLESPEED,OFFICE_OPEN_2_7_Z71_COOLINGCOILDX,Outlet,1
 Non-Parent Node Connection,OFFICE_OPEN_2_8_Z72_SUPPLYINLET,COIL:COOLING:DX:SINGLESPEED,OFFICE_OPEN_2_8_Z72_COOLINGCOILDX,Inlet,1
 Non-Parent Node Connection,OFFICE_OPEN_2_8_Z72_COOLC-HEATCNODE,COIL:COOLING:DX:SINGLESPEED,OFFICE_OPEN_2_8_Z72_COOLINGCOILDX,Outlet,1
 Non-Parent Node Connection,OFFICE_OPEN_2_9_Z73_SUPPLYINLET,COIL:COOLING:DX:SINGLESPEED,OFFICE_OPEN_2_9_Z73_COOLINGCOILDX,Inlet,1
 Non-Parent Node Connection,OFFICE_OPEN_2_9_Z73_COOLC-HEATCNODE,COIL:COOLING:DX:SINGLESPEED,OFFICE_OPEN_2_9_Z73_COOLINGCOILDX,Outlet,1
 Non-Parent Node Connection,OFFICE_OPEN_2_10_Z74_SUPPLYINLET,COIL:COOLING:DX:SINGLESPEED,OFFICE_OPEN_2_10_Z74_COOLINGCOILDX,Inlet,1
 Non-Parent Node Connection,OFFICE_OPEN_2_10_Z74_COOLC-HEATCNODE,COIL:COOLING:DX:SINGLESPEED,OFFICE_OPEN_2_10_Z74_COOLINGCOILDX,Outlet,1
 Non-Parent Node Connection,OFFICE_OPEN_2_11_Z75_SUPPLYINLET,COIL:COOLING:DX:SINGLESPEED,OFFICE_OPEN_2_11_Z75_COOLINGCOILDX,Inlet,1
 Non-Parent Node Connection,OFFICE_OPEN_2_11_Z75_COOLC-HEATCNODE,COIL:COOLING:DX:SINGLESPEED,OFFICE_OPEN_2_11_Z75_COOLINGCOILDX,Outlet,1
 Non-Parent Node Connection,OFFICE_OPEN_2_12_Z76_SUPPLYINLET,COIL:COOLING:DX:SINGLESPEED,OFFICE_OPEN_2_12_Z76_COOLINGCOILDX,Inlet,1
 Non-Parent Node Connection,OFFICE_OPEN_2_12_Z76_COOLC-HEATCNODE,COIL:COOLING:DX:SINGLESPEED,OFFICE_OPEN_2_12_Z76_COOLINGCOILDX,Outlet,1
 Non-Parent Node Connection,OFFICE_OPEN_2_13_Z77_SUPPLYINLET,COIL:COOLING:DX:SINGLESPEED,OFFICE_OPEN_2_13_Z77_COOLINGCOILDX,Inlet,1
 Non-Parent Node Connection,OFFICE_OPEN_2_13_Z77_COOLC-HEATCNODE,COIL:COOLING:DX:SINGLESPEED,OFFICE_OPEN_2_13_Z77_COOLINGCOILDX,Outlet,1
 Non-Parent Node Connection,OFFICE_OPEN_2_14_Z78_SUPPLYINLET,COIL:COOLING:DX:SINGLESPEED,OFFICE_OPEN_2_14_Z78_COOLINGCOILDX,Inlet,1
 Non-Parent Node Connection,OFFICE_OPEN_2_14_Z78_COOLC-HEATCNODE,COIL:COOLING:DX:SINGLESPEED,OFFICE_OPEN_2_14_Z78_COOLINGCOILDX,Outlet,1
 Non-Parent Node Connection,OFFICE_OPEN_2_15_Z79_SUPPLYINLET,COIL:COOLING:DX:SINGLESPEED,OFFICE_OPEN_2_15_Z79_COOLINGCOILDX,Inlet,1
 Non-Parent Node Connection,OFFICE_OPEN_2_15_Z79_COOLC-HEATCNODE,COIL:COOLING:DX:SINGLESPEED,OFFICE_OPEN_2_15_Z79_COOLINGCOILDX,Outlet,1
 Non-Parent Node Connection,OFFICE_OPEN_2_16_Z80_SUPPLYINLET,COIL:COOLING:DX:SINGLESPEED,OFFICE_OPEN_2_16_Z80_COOLINGCOILDX,Inlet,1
 Non-Parent Node Connection,OFFICE_OPEN_2_16_Z80_COOLC-HEATCNODE,COIL:COOLING:DX:SINGLESPEED,OFFICE_OPEN_2_16_Z80_COOLINGCOILDX,Outlet,1
 Non-Parent Node Connection,OFFICE_OPEN_2_17_Z81_SUPPLYINLET,COIL:COOLING:DX:SINGLESPEED,OFFICE_OPEN_2_17_Z81_COOLINGCOILDX,Inlet,1
 Non-Parent Node Connection,OFFICE_OPEN_2_17_Z81_COOLC-HEATCNODE,COIL:COOLING:DX:SINGLESPEED,OFFICE_OPEN_2_17_Z81_COOLINGCOILDX,Outlet,1
 Non-Parent Node Connection,OFFICE_OPEN_2_18_Z82_SUPPLYINLET,COIL:COOLING:DX:SINGLESPEED,OFFICE_OPEN_2_18_Z82_COOLINGCOILDX,Inlet,1
 Non-Parent Node Connection,OFFICE_OPEN_2_18_Z82_COOLC-HEATCNODE,COIL:COOLING:DX:SINGLESPEED,OFFICE_OPEN_2_18_Z82_COOLINGCOILDX,Outlet,1
 Non-Parent Node Connection,OFFICE_OPEN_2_19_Z83_SUPPLYINLET,COIL:COOLING:DX:SINGLESPEED,OFFICE_OPEN_2_19_Z83_COOLINGCOILDX,Inlet,1
 Non-Parent Node Connection,OFFICE_OPEN_2_19_Z83_COOLC-HEATCNODE,COIL:COOLING:DX:SINGLESPEED,OFFICE_OPEN_2_19_Z83_COOLINGCOILDX,Outlet,1
 Non-Parent Node Connection,OFFICE_OPEN_2_20_Z84_SUPPLYINLET,COIL:COOLING:DX:SINGLESPEED,OFFICE_OPEN_2_20_Z84_COOLINGCOILDX,Inlet,1
 Non-Parent Node Connection,OFFICE_OPEN_2_20_Z84_COOLC-HEATCNODE,COIL:COOLING:DX:SINGLESPEED,OFFICE_OPEN_2_20_Z84_COOLINGCOILDX,Outlet,1
 Non-Parent Node Connection,OFFICE_OPEN_2_21_Z85_SUPPLYINLET,COIL:COOLING:DX:SINGLESPEED,OFFICE_OPEN_2_21_Z85_COOLINGCOILDX,Inlet,1
 Non-Parent Node Connection,OFFICE_OPEN_2_21_Z85_COOLC-HEATCNODE,COIL:COOLING:DX:SINGLESPEED,OFFICE_OPEN_2_21_Z85_COOLINGCOILDX,Outlet,1
 Non-Parent Node Connection,OFFICE_OPEN_2_22_Z86_SUPPLYINLET,COIL:COOLING:DX:SINGLESPEED,OFFICE_OPEN_2_22_Z86_COOLINGCOILDX,Inlet,1
 Non-Parent Node Connection,OFFICE_OPEN_2_22_Z86_COOLC-HEATCNODE,COIL:COOLING:DX:SINGLESPEED,OFFICE_OPEN_2_22_Z86_COOLINGCOILDX,Outlet,1
 Non-Parent Node Connection,OFFICE_OPEN_2_23_Z87_SUPPLYINLET,COIL:COOLING:DX:SINGLESPEED,OFFICE_OPEN_2_23_Z87_COOLINGCOILDX,Inlet,1
 Non-Parent Node Connection,OFFICE_OPEN_2_23_Z87_COOLC-HEATCNODE,COIL:COOLING:DX:SINGLESPEED,OFFICE_OPEN_2_23_Z87_COOLINGCOILDX,Outlet,1
 Non-Parent Node Connection,LOBBY_3_Z88_SUPPLYINLET,COIL:COOLING:DX:SINGLESPEED,LOBBY_3_Z88_COOLINGCOILDX,Inlet,1
 Non-Parent Node Connection,LOBBY_3_Z88_COOLC-HEATCNODE,COIL:COOLING:DX:SINGLESPEED,LOBBY_3_Z88_COOLINGCOILDX,Outlet,1
 Non-Parent Node Connection,CONFERENCE_3_Z89_SUPPLYINLET,COIL:COOLING:DX:SINGLESPEED,CONFERENCE_3_Z89_COOLINGCOILDX,Inlet,1
 Non-Parent Node Connection,CONFERENCE_3_Z89_COOLC-HEATCNODE,COIL:COOLING:DX:SINGLESPEED,CONFERENCE_3_Z89_COOLINGCOILDX,Outlet,1
 Non-Parent Node Connection,BREAK_ROOM_3_Z90_SUPPLYINLET,COIL:COOLING:DX:SINGLESPEED,BREAK_ROOM_3_Z90_COOLINGCOILDX,Inlet,1
 Non-Parent Node Connection,BREAK_ROOM_3_Z90_COOLC-HEATCNODE,COIL:COOLING:DX:SINGLESPEED,BREAK_ROOM_3_Z90_COOLINGCOILDX,Outlet,1
 Non-Parent Node Connection,MECHANICAL_3_Z91_SUPPLYINLET,COIL:COOLING:DX:SINGLESPEED,MECHANICAL_3_Z91_COOLINGCOILDX,Inlet,1
 Non-Parent Node Connection,MECHANICAL_3_Z91_COOLC-HEATCNODE,COIL:COOLING:DX:SINGLESPEED,MECHANICAL_3_Z91_COOLINGCOILDX,Outlet,1
 Non-Parent Node Connection,OFFICE_OPEN_3_Z92_SUPPLYINLET,COIL:COOLING:DX:SINGLESPEED,OFFICE_OPEN_3_Z92_COOLINGCOILDX,Inlet,1
 Non-Parent Node Connection,OFFICE_OPEN_3_Z92_COOLC-HEATCNODE,COIL:COOLING:DX:SINGLESPEED,OFFICE_OPEN_3_Z92_COOLINGCOILDX,Outlet,1
 Non-Parent Node Connection,OFFICE_PRIVATE_3_Z93_SUPPLYINLET,COIL:COOLING:DX:SINGLESPEED,OFFICE_PRIVATE_3_Z93_COOLINGCOILDX,Inlet,1
 Non-Parent Node Connection,OFFICE_PRIVATE_3_Z93_COOLC-HEATCNODE,COIL:COOLING:DX:SINGLESPEED,OFFICE_PRIVATE_3_Z93_COOLINGCOILDX,Outlet,1
 Non-Parent Node Connection,STORAGE_3_Z94_SUPPLYINLET,COIL:COOLING:DX:SINGLESPEED,STORAGE_3_Z94_COOLINGCOILDX,Inlet,1
 Non-Parent Node Connection,STORAGE_3_Z94_COOLC-HEATCNODE,COIL:COOLING:DX:SINGLESPEED,STORAGE_3_Z94_COOLINGCOILDX,Outlet,1
 Non-Parent Node Connection,OFFICE_OPEN_3_2_Z95_SUPPLYINLET,COIL:COOLING:DX:SINGLESPEED,OFFICE_OPEN_3_2_Z95_COOLINGCOILDX,Inlet,1
 Non-Parent Node Connection,OFFICE_OPEN_3_2_Z95_COOLC-HEATCNODE,COIL:COOLING:DX:SINGLESPEED,OFFICE_OPEN_3_2_Z95_COOLINGCOILDX,Outlet,1
 Non-Parent Node Connection,OFFICE_OPEN_3_3_Z96_SUPPLYINLET,COIL:COOLING:DX:SINGLESPEED,OFFICE_OPEN_3_3_Z96_COOLINGCOILDX,Inlet,1
 Non-Parent Node Connection,OFFICE_OPEN_3_3_Z96_COOLC-HEATCNODE,COIL:COOLING:DX:SINGLESPEED,OFFICE_OPEN_3_3_Z96_COOLINGCOILDX,Outlet,1
 Non-Parent Node Connection,OFFICE_OPEN_3_4_Z97_SUPPLYINLET,COIL:COOLING:DX:SINGLESPEED,OFFICE_OPEN_3_4_Z97_COOLINGCOILDX,Inlet,1
 Non-Parent Node Connection,OFFICE_OPEN_3_4_Z97_COOLC-HEATCNODE,COIL:COOLING:DX:SINGLESPEED,OFFICE_OPEN_3_4_Z97_COOLINGCOILDX,Outlet,1
 Non-Parent Node Connection,OFFICE_OPEN_3_5_Z98_SUPPLYINLET,COIL:COOLING:DX:SINGLESPEED,OFFICE_OPEN_3_5_Z98_COOLINGCOILDX,Inlet,1
 Non-Parent Node Connection,OFFICE_OPEN_3_5_Z98_COOLC-HEATCNODE,COIL:COOLING:DX:SINGLESPEED,OFFICE_OPEN_3_5_Z98_COOLINGCOILDX,Outlet,1
 Non-Parent Node Connection,OFFICE_OPEN_3_6_Z99_SUPPLYINLET,COIL:COOLING:DX:SINGLESPEED,OFFICE_OPEN_3_6_Z99_COOLINGCOILDX,Inlet,1
 Non-Parent Node Connection,OFFICE_OPEN_3_6_Z99_COOLC-HEATCNODE,COIL:COOLING:DX:SINGLESPEED,OFFICE_OPEN_3_6_Z99_COOLINGCOILDX,Outlet,1
 Non-Parent Node Connection,OFFICE_OPEN_3_7_Z100_SUPPLYINLET,COIL:COOLING:DX:SINGLESPEED,OFFICE_OPEN_3_7_Z100_COOLINGCOILDX,Inlet,1
 Non-Parent Node Connection,OFFICE_OPEN_3_7_Z100_COOLC-HEATCNODE,COIL:COOLING:DX:SINGLESPEED,OFFICE_OPEN_3_7_Z100_COOLINGCOILDX,Outlet,1
 Non-Parent Node Connection,OFFICE_OPEN_3_8_Z101_SUPPLYINLET,COIL:COOLING:DX:SINGLESPEED,OFFICE_OPEN_3_8_Z101_COOLINGCOILDX,Inlet,1
 Non-Parent Node Connection,OFFICE_OPEN_3_8_Z101_COOLC-HEATCNODE,COIL:COOLING:DX:SINGLESPEED,OFFICE_OPEN_3_8_Z101_COOLINGCOILDX,Outlet,1
 Non-Parent Node Connection,OFFICE_OPEN_3_9_Z102_SUPPLYINLET,COIL:COOLING:DX:SINGLESPEED,OFFICE_OPEN_3_9_Z102_COOLINGCOILDX,Inlet,1
 Non-Parent Node Connection,OFFICE_OPEN_3_9_Z102_COOLC-HEATCNODE,COIL:COOLING:DX:SINGLESPEED,OFFICE_OPEN_3_9_Z102_COOLINGCOILDX,Outlet,1
 Non-Parent Node Connection,OFFICE_OPEN_3_10_Z103_SUPPLYINLET,COIL:COOLING:DX:SINGLESPEED,OFFICE_OPEN_3_10_Z103_COOLINGCOILDX,Inlet,1
 Non-Parent Node Connection,OFFICE_OPEN_3_10_Z103_COOLC-HEATCNODE,COIL:COOLING:DX:SINGLESPEED,OFFICE_OPEN_3_10_Z103_COOLINGCOILDX,Outlet,1
 Non-Parent Node Connection,OFFICE_OPEN_3_11_Z104_SUPPLYINLET,COIL:COOLING:DX:SINGLESPEED,OFFICE_OPEN_3_11_Z104_COOLINGCOILDX,Inlet,1
 Non-Parent Node Connection,OFFICE_OPEN_3_11_Z104_COOLC-HEATCNODE,COIL:COOLING:DX:SINGLESPEED,OFFICE_OPEN_3_11_Z104_COOLINGCOILDX,Outlet,1
 Non-Parent Node Connection,OFFICE_OPEN_3_12_Z105_SUPPLYINLET,COIL:COOLING:DX:SINGLESPEED,OFFICE_OPEN_3_12_Z105_COOLINGCOILDX,Inlet,1
 Non-Parent Node Connection,OFFICE_OPEN_3_12_Z105_COOLC-HEATCNODE,COIL:COOLING:DX:SINGLESPEED,OFFICE_OPEN_3_12_Z105_COOLINGCOILDX,Outlet,1
 Non-Parent Node Connection,OFFICE_OPEN_3_13_Z106_SUPPLYINLET,COIL:COOLING:DX:SINGLESPEED,OFFICE_OPEN_3_13_Z106_COOLINGCOILDX,Inlet,1
 Non-Parent Node Connection,OFFICE_OPEN_3_13_Z106_COOLC-HEATCNODE,COIL:COOLING:DX:SINGLESPEED,OFFICE_OPEN_3_13_Z106_COOLINGCOILDX,Outlet,1
 Non-Parent Node Connection,OFFICE_OPEN_3_14_Z107_SUPPLYINLET,COIL:COOLING:DX:SINGLESPEED,OFFICE_OPEN_3_14_Z107_COOLINGCOILDX,Inlet,1
 Non-Parent Node Connection,OFFICE_OPEN_3_14_Z107_COOLC-HEATCNODE,COIL:COOLING:DX:SINGLESPEED,OFFICE_OPEN_3_14_Z107_COOLINGCOILDX,Outlet,1
 Non-Parent Node Connection,OFFICE_OPEN_3_15_Z108_SUPPLYINLET,COIL:COOLING:DX:SINGLESPEED,OFFICE_OPEN_3_15_Z108_COOLINGCOILDX,Inlet,1
 Non-Parent Node Connection,OFFICE_OPEN_3_15_Z108_COOLC-HEATCNODE,COIL:COOLING:DX:SINGLESPEED,OFFICE_OPEN_3_15_Z108_COOLINGCOILDX,Outlet,1
 Non-Parent Node Connection,OFFICE_OPEN_3_16_Z109_SUPPLYINLET,COIL:COOLING:DX:SINGLESPEED,OFFICE_OPEN_3_16_Z109_COOLINGCOILDX,Inlet,1
 Non-Parent Node Connection,OFFICE_OPEN_3_16_Z109_COOLC-HEATCNODE,COIL:COOLING:DX:SINGLESPEED,OFFICE_OPEN_3_16_Z109_COOLINGCOILDX,Outlet,1
 Non-Parent Node Connection,OFFICE_OPEN_3_17_Z110_SUPPLYINLET,COIL:COOLING:DX:SINGLESPEED,OFFICE_OPEN_3_17_Z110_COOLINGCOILDX,Inlet,1
 Non-Parent Node Connection,OFFICE_OPEN_3_17_Z110_COOLC-HEATCNODE,COIL:COOLING:DX:SINGLESPEED,OFFICE_OPEN_3_17_Z110_COOLINGCOILDX,Outlet,1
 Non-Parent Node Connection,OFFICE_OPEN_3_18_Z111_SUPPLYINLET,COIL:COOLING:DX:SINGLESPEED,OFFICE_OPEN_3_18_Z111_COOLINGCOILDX,Inlet,1
 Non-Parent Node Connection,OFFICE_OPEN_3_18_Z111_COOLC-HEATCNODE,COIL:COOLING:DX:SINGLESPEED,OFFICE_OPEN_3_18_Z111_COOLINGCOILDX,Outlet,1
 Non-Parent Node Connection,OFFICE_OPEN_3_19_Z112_SUPPLYINLET,COIL:COOLING:DX:SINGLESPEED,OFFICE_OPEN_3_19_Z112_COOLINGCOILDX,Inlet,1
 Non-Parent Node Connection,OFFICE_OPEN_3_19_Z112_COOLC-HEATCNODE,COIL:COOLING:DX:SINGLESPEED,OFFICE_OPEN_3_19_Z112_COOLINGCOILDX,Outlet,1
 Non-Parent Node Connection,OFFICE_OPEN_3_20_Z113_SUPPLYINLET,COIL:COOLING:DX:SINGLESPEED,OFFICE_OPEN_3_20_Z113_COOLINGCOILDX,Inlet,1
 Non-Parent Node Connection,OFFICE_OPEN_3_20_Z113_COOLC-HEATCNODE,COIL:COOLING:DX:SINGLESPEED,OFFICE_OPEN_3_20_Z113_COOLINGCOILDX,Outlet,1
 Non-Parent Node Connection,OFFICE_OPEN_3_21_Z114_SUPPLYINLET,COIL:COOLING:DX:SINGLESPEED,OFFICE_OPEN_3_21_Z114_COOLINGCOILDX,Inlet,1
 Non-Parent Node Connection,OFFICE_OPEN_3_21_Z114_COOLC-HEATCNODE,COIL:COOLING:DX:SINGLESPEED,OFFICE_OPEN_3_21_Z114_COOLINGCOILDX,Outlet,1
 Non-Parent Node Connection,OFFICE_OPEN_3_22_Z115_SUPPLYINLET,COIL:COOLING:DX:SINGLESPEED,OFFICE_OPEN_3_22_Z115_COOLINGCOILDX,Inlet,1
 Non-Parent Node Connection,OFFICE_OPEN_3_22_Z115_COOLC-HEATCNODE,COIL:COOLING:DX:SINGLESPEED,OFFICE_OPEN_3_22_Z115_COOLINGCOILDX,Outlet,1
 Non-Parent Node Connection,LOBBY_4_Z116_SUPPLYINLET,COIL:COOLING:DX:SINGLESPEED,LOBBY_4_Z116_COOLINGCOILDX,Inlet,1
 Non-Parent Node Connection,LOBBY_4_Z116_COOLC-HEATCNODE,COIL:COOLING:DX:SINGLESPEED,LOBBY_4_Z116_COOLINGCOILDX,Outlet,1
 Non-Parent Node Connection,CONFERENCE_4_Z117_SUPPLYINLET,COIL:COOLING:DX:SINGLESPEED,CONFERENCE_4_Z117_COOLINGCOILDX,Inlet,1
 Non-Parent Node Connection,CONFERENCE_4_Z117_COOLC-HEATCNODE,COIL:COOLING:DX:SINGLESPEED,CONFERENCE_4_Z117_COOLINGCOILDX,Outlet,1
 Non-Parent Node Connection,BREAK_ROOM_4_Z118_SUPPLYINLET,COIL:COOLING:DX:SINGLESPEED,BREAK_ROOM_4_Z118_COOLINGCOILDX,Inlet,1
 Non-Parent Node Connection,BREAK_ROOM_4_Z118_COOLC-HEATCNODE,COIL:COOLING:DX:SINGLESPEED,BREAK_ROOM_4_Z118_COOLINGCOILDX,Outlet,1
 Non-Parent Node Connection,MECHANICAL_4_Z119_SUPPLYINLET,COIL:COOLING:DX:SINGLESPEED,MECHANICAL_4_Z119_COOLINGCOILDX,Inlet,1
 Non-Parent Node Connection,MECHANICAL_4_Z119_COOLC-HEATCNODE,COIL:COOLING:DX:SINGLESPEED,MECHANICAL_4_Z119_COOLINGCOILDX,Outlet,1
 Non-Parent Node Connection,OFFICE_OPEN_4_Z120_SUPPLYINLET,COIL:COOLING:DX:SINGLESPEED,OFFICE_OPEN_4_Z120_COOLINGCOILDX,Inlet,1
 Non-Parent Node Connection,OFFICE_OPEN_4_Z120_COOLC-HEATCNODE,COIL:COOLING:DX:SINGLESPEED,OFFICE_OPEN_4_Z120_COOLINGCOILDX,Outlet,1
 Non-Parent Node Connection,OFFICE_PRIVATE_4_Z121_SUPPLYINLET,COIL:COOLING:DX:SINGLESPEED,OFFICE_PRIVATE_4_Z121_COOLINGCOILDX,Inlet,1
 Non-Parent Node Connection,OFFICE_PRIVATE_4_Z121_COOLC-HEATCNODE,COIL:COOLING:DX:SINGLESPEED,OFFICE_PRIVATE_4_Z121_COOLINGCOILDX,Outlet,1
 Non-Parent Node Connection,STORAGE_4_Z122_SUPPLYINLET,COIL:COOLING:DX:SINGLESPEED,STORAGE_4_Z122_COOLINGCOILDX,Inlet,1
 Non-Parent Node Connection,STORAGE_4_Z122_COOLC-HEATCNODE,COIL:COOLING:DX:SINGLESPEED,STORAGE_4_Z122_COOLINGCOILDX,Outlet,1
 Non-Parent Node Connection,OFFICE_OPEN_4_2_Z123_SUPPLYINLET,COIL:COOLING:DX:SINGLESPEED,OFFICE_OPEN_4_2_Z123_COOLINGCOILDX,Inlet,1
 Non-Parent Node Connection,OFFICE_OPEN_4_2_Z123_COOLC-HEATCNODE,COIL:COOLING:DX:SINGLESPEED,OFFICE_OPEN_4_2_Z123_COOLINGCOILDX,Outlet,1
 Non-Parent Node Connection,OFFICE_OPEN_4_3_Z124_SUPPLYINLET,COIL:COOLING:DX:SINGLESPEED,OFFICE_OPEN_4_3_Z124_COOLINGCOILDX,Inlet,1
 Non-Parent Node Connection,OFFICE_OPEN_4_3_Z124_COOLC-HEATCNODE,COIL:COOLING:DX:SINGLESPEED,OFFICE_OPEN_4_3_Z124_COOLINGCOILDX,Outlet,1
 Non-Parent Node Connection,OFFICE_OPEN_4_4_Z125_SUPPLYINLET,COIL:COOLING:DX:SINGLESPEED,OFFICE_OPEN_4_4_Z125_COOLINGCOILDX,Inlet,1
 Non-Parent Node Connection,OFFICE_OPEN_4_4_Z125_COOLC-HEATCNODE,COIL:COOLING:DX:SINGLESPEED,OFFICE_OPEN_4_4_Z125_COOLINGCOILDX,Outlet,1
 Non-Parent Node Connection,OFFICE_OPEN_4_5_Z126_SUPPLYINLET,COIL:COOLING:DX:SINGLESPEED,OFFICE_OPEN_4_5_Z126_COOLINGCOILDX,Inlet,1
 Non-Parent Node Connection,OFFICE_OPEN_4_5_Z126_COOLC-HEATCNODE,COIL:COOLING:DX:SINGLESPEED,OFFICE_OPEN_4_5_Z126_COOLINGCOILDX,Outlet,1
 Non-Parent Node Connection,OFFICE_OPEN_4_6_Z127_SUPPLYINLET,COIL:COOLING:DX:SINGLESPEED,OFFICE_OPEN_4_6_Z127_COOLINGCOILDX,Inlet,1
 Non-Parent Node Connection,OFFICE_OPEN_4_6_Z127_COOLC-HEATCNODE,COIL:COOLING:DX:SINGLESPEED,OFFICE_OPEN_4_6_Z127_COOLINGCOILDX,Outlet,1
 Non-Parent Node Connection,OFFICE_OPEN_4_7_Z128_SUPPLYINLET,COIL:COOLING:DX:SINGLESPEED,OFFICE_OPEN_4_7_Z128_COOLINGCOILDX,Inlet,1
 Non-Parent Node Connection,OFFICE_OPEN_4_7_Z128_COOLC-HEATCNODE,COIL:COOLING:DX:SINGLESPEED,OFFICE_OPEN_4_7_Z128_COOLINGCOILDX,Outlet,1
 Non-Parent Node Connection,OFFICE_OPEN_4_8_Z129_SUPPLYINLET,COIL:COOLING:DX:SINGLESPEED,OFFICE_OPEN_4_8_Z129_COOLINGCOILDX,Inlet,1
 Non-Parent Node Connection,OFFICE_OPEN_4_8_Z129_COOLC-HEATCNODE,COIL:COOLING:DX:SINGLESPEED,OFFICE_OPEN_4_8_Z129_COOLINGCOILDX,Outlet,1
 Non-Parent Node Connection,OFFICE_OPEN_4_9_Z130_SUPPLYINLET,COIL:COOLING:DX:SINGLESPEED,OFFICE_OPEN_4_9_Z130_COOLINGCOILDX,Inlet,1
 Non-Parent Node Connection,OFFICE_OPEN_4_9_Z130_COOLC-HEATCNODE,COIL:COOLING:DX:SINGLESPEED,OFFICE_OPEN_4_9_Z130_COOLINGCOILDX,Outl