Program Version,EnergyPlus, Version 24.2.0-94a887817b, YMD=2025.11.03 23:56
! <Version>, Version ID
 Version, 25.1
! <Timesteps per Hour>, #TimeSteps, Minutes per TimeStep {minutes}
 Timesteps per Hour,  4, 15
! <System Convergence Limits>, Minimum System TimeStep {minutes}, Max HVAC Iterations, Minimum Plant Iterations, Maximum Plant Iterations
 System Convergence Limits, 1, 20, 2, 8
! <Simulation Control>, Do Zone Sizing, Do System Sizing, Do Plant Sizing, Do Design Days, Do Weather Simulation, Do HVAC Sizing Simulation
 Simulation Control, No, No, No, No, Yes, No
! <Performance Precision Tradeoffs>, Use Coil Direct Simulation, Zone Radiant Exchange Algorithm, Override Mode, Number of Timestep In Hour, Force Euler Method, Minimum Number of Warmup Days, Force Suppress All Begin Environment Resets, Minimum System Timestep, MaxZoneTempDiff, MaxAllowedDelTemp
 Performance Precision Tradeoffs, No, ScriptF, Normal, 4, No, 1, No, 1.0, 0.300, 2.0000E-003
! <Output Reporting Tolerances>, Tolerance for Time Heating Setpoint Not Met, Tolerance for Zone Cooling Setpoint Not Met Time
 Output Reporting Tolerances, 0.200, 0.200, 
! <Site:GroundTemperature:BuildingSurface>,Jan{C},Feb{C},Mar{C},Apr{C},May{C},Jun{C},Jul{C},Aug{C},Sep{C},Oct{C},Nov{C},Dec{C}
 Site:GroundTemperature:BuildingSurface,  13.00,  12.00,  11.00,  10.00,  11.00,  13.00,  15.00,  16.00,  16.00,  15.00,  14.00,  13.00
! <Site:GroundTemperature:FCfactorMethod>,Jan{C},Feb{C},Mar{C},Apr{C},May{C},Jun{C},Jul{C},Aug{C},Sep{C},Oct{C},Nov{C},Dec{C}
 Site:GroundTemperature:FCfactorMethod,  -1.89,  -3.06,  -0.99,   2.23,  10.68,  17.20,  21.60,  22.94,  20.66,  15.60,   8.83,   2.56
! <Site:GroundTemperature:Shallow>,Jan{C},Feb{C},Mar{C},Apr{C},May{C},Jun{C},Jul{C},Aug{C},Sep{C},Oct{C},Nov{C},Dec{C}
 Site:GroundTemperature:Shallow,  11.00,  10.00,   9.00,   8.00,   9.00,  11.00,  13.00,  14.00,  14.00,  13.00,  12.00,  11.00
! <Site:GroundTemperature:Deep>,Jan{C},Feb{C},Mar{C},Apr{C},May{C},Jun{C},Jul{C},Aug{C},Sep{C},Oct{C},Nov{C},Dec{C}
 Site:GroundTemperature:Deep,   9.00,   8.00,   7.00,   6.00,   7.00,   9.00,  11.00,  12.00,  12.00,  11.00,  10.00,   9.00
! <Site:GroundReflectance>,Jan{dimensionless},Feb{dimensionless},Mar{dimensionless},Apr{dimensionless},May{dimensionless},Jun{dimensionless},Jul{dimensionless},Aug{dimensionless},Sep{dimensionless},Oct{dimensionless},Nov{dimensionless},Dec{dimensionless}
 Site:GroundReflectance,  0.20,  0.20,  0.20,  0.20,  0.20,  0.20,  0.20,  0.20,  0.20,  0.20,  0.20,  0.20
! <Site:GroundReflectance:SnowModifier>, Normal, Daylighting {dimensionless}
 Site:GroundReflectance:SnowModifier,   1.000,   1.000
! <Site:GroundReflectance:Snow>,Jan{dimensionless},Feb{dimensionless},Mar{dimensionless},Apr{dimensionless},May{dimensionless},Jun{dimensionless},Jul{dimensionless},Aug{dimensionless},Sep{dimensionless},Oct{dimensionless},Nov{dimensionless},Dec{dimensionless}
 Site:GroundReflectance:Snow,  0.20,  0.20,  0.20,  0.20,  0.20,  0.20,  0.20,  0.20,  0.20,  0.20,  0.20,  0.20
! <Site:GroundReflectance:Snow:Daylighting>,Jan{dimensionless},Feb{dimensionless},Mar{dimensionless},Apr{dimensionless},May{dimensionless},Jun{dimensionless},Jul{dimensionless},Aug{dimensionless},Sep{dimensionless},Oct{dimensionless},Nov{dimensionless},Dec{dimensionless}
 Site:GroundReflectance:Snow:Daylighting,  0.20,  0.20,  0.20,  0.20,  0.20,  0.20,  0.20,  0.20,  0.20,  0.20,  0.20,  0.20
! <Environment:Weather Station>,Wind Sensor Height Above Ground {m},Wind Speed Profile Exponent {},Wind Speed Profile Boundary Layer Thickness {m},Air Temperature Sensor Height Above Ground {m},Wind Speed Modifier Coefficient-Internal,Temperature Modifier Coefficient-Internal
Environment:Weather Station,10.000,0.140,270.000,1.500,1.586,9.750E-003
! <Site:Location>, Location Name, Latitude {N+/S- Deg}, Longitude {E+/W- Deg},  Time Zone Number {GMT+/-}, Elevation {m},  Standard Pressure at Elevation {Pa}, Standard RhoAir at Elevation
Site:Location,Chicago Ohare Intl Ap IL USA TMY3 WMO#=725300,41.98,-87.92,-6.00,201.00,98934,1.1759
! <Site Water Mains Temperature Information>,Calculation Method{},Water Mains Temperature Schedule Name{},Annual Average Outdoor Air Temperature{C},Maximum Difference In Monthly Average Outdoor Air Temperatures{deltaC},Fixed Default Water Mains Temperature{C}
Site Water Mains Temperature Information,FixedDefault,NA,NA,NA,10.0
! <Building Information>, Building Name,North Axis {deg},Terrain,  Loads Convergence Tolerance Value,Temperature Convergence Tolerance Value,  Solar Distribution,Maximum Number of Warmup Days,Minimum Number of Warmup Days
 Building Information,Professional Building,0.000,Suburbs,4.00000E-002,0.20000,MinimalShadowing,15,6
! <Inside Convection Algorithm>, Algorithm {Simple | TARP | CeilingDiffuser | AdaptiveConvectionAlgorithm}
Inside Convection Algorithm,TARP
! <Outside Convection Algorithm>, Algorithm {SimpleCombined | TARP | MoWitt | DOE-2 | AdaptiveConvectionAlgorithm}
Outside Convection Algorithm,DOE-2
! <Sky Radiance Distribution>, Value {Anisotropic}
Sky Radiance Distribution,Anisotropic
! <Zone Air Solution Algorithm>, Algorithm {ThirdOrderBackwardDifference | AnalyticalSolution | EulerMethod}, Space Heat Balance Sizing, Space Heat Balance Simulation
 Zone Air Solution Algorithm, ThirdOrderBackwardDifference, No, No
! <Zone Air Carbon Dioxide Balance Simulation>, Simulation {Yes/No}, Carbon Dioxide Concentration
 Zone Air Carbon Dioxide Balance Simulation, No,N/A
! <Zone Air Generic Contaminant Balance Simulation>, Simulation {Yes/No}, Generic Contaminant Concentration
 Zone Air Generic Contaminant Balance Simulation, No,N/A
! <Zone Air Mass Flow Balance Simulation>, Enforce Mass Balance, Adjust Zone Mixing and Return {AdjustMixingOnly | AdjustReturnOnly | AdjustMixingThenReturn | AdjustReturnThenMixing | None}, Adjust Zone Infiltration {AddInfiltration | AdjustInfiltration | None}, Infiltration Zones {MixingSourceZonesOnly | AllZones}
 Zone Air Mass Flow Balance Simulation, No,N/A,N/A,N/A
! <HVACSystemRootFindingAlgorithm>, Value {RegulaFalsi | Bisection | BisectionThenRegulaFalsi | RegulaFalsiThenBisection}
 HVACSystemRootFindingAlgorithm, RegulaFalsi
! <Environment:Site Atmospheric Variation>,Wind Speed Profile Exponent {},Wind Speed Profile Boundary Layer Thickness {m},Air Temperature Gradient Coefficient {K/m}
Environment:Site Atmospheric Variation,0.220,370.000,6.500000E-003
! <Shadowing/Sun Position Calculations Annual Simulations>, Shading Calculation Method, Shading Calculation Update Frequency Method, Shading Calculation Update Frequency {days}, Maximum Figures in Shadow Overlap Calculations {}, Polygon Clipping Algorithm, Pixel Counting Resolution, Sky Diffuse Modeling Algorithm, Output External Shading Calculation Results, Disable Self-Shading Within Shading Zone Groups, Disable Self-Shading From Shading Zone Groups to Other Zones
Shadowing/Sun Position Calculations Annual Simulations,PolygonClipping,Periodic,20,15000,SutherlandHodgman,512,SimpleSkyDiffuseModeling,No,No,No
! <Surface Geometry>,Starting Corner,Vertex Input Direction,Coordinate System,Daylight Reference Point Coordinate System,Rectangular (Simple) Surface Coordinate System
 Surface Geometry,UpperLeftCorner,Counterclockwise,RelativeCoordinateSystem,RelativeCoordinateSystem,RelativeToZoneOrigin
! <Surface Heat Transfer Algorithm>, Value {CTF - ConductionTransferFunction | EMPD - MoisturePenetrationDepthConductionTransferFunction | CondFD - ConductionFiniteDifference | HAMT - CombinedHeatAndMoistureFiniteElement} - Description,Inside Surface Max Temperature Limit{C}, Surface Convection Coefficient Lower Limit {W/m2-K}, Surface Convection Coefficient Upper Limit {W/m2-K}
Surface Heat Transfer Algorithm, CTF - ConductionTransferFunction,200,0.10,1000.0
! <Shading Summary>, Number of Fixed Detached Shades, Number of Building Detached Shades, Number of Attached Shades
 Shading Summary,0,0,0
! <Zone Summary>, Number of Zones, Number of Zone Surfaces, Number of SubSurfaces
 Zone Summary,64,836,306
! <Zone Information>,Zone Name,North Axis {deg},Origin X-Coordinate {m},Origin Y-Coordinate {m},Origin Z-Coordinate {m},Centroid X-Coordinate {m},Centroid Y-Coordinate {m},Centroid Z-Coordinate {m},Type,Zone Multiplier,Zone List Multiplier,Minimum X {m},Maximum X {m},Minimum Y {m},Maximum Y {m},Minimum Z {m},Maximum Z {m},Ceiling Height {m},Volume {m3},Zone Inside Convection Algorithm {Simple-Detailed-CeilingDiffuser-TrombeWall},Zone Outside Convection Algorithm {Simple-Detailed-Tarp-MoWitt-DOE-2-BLAST}, Floor Area {m2},Exterior Gross Wall Area {m2},Exterior Net Wall Area {m2},Exterior Window Area {m2}, Number of Surfaces, Number of SubSurfaces, Number of Shading SubSurfaces,  Part of Total Building Area
 Zone Information, LOBBY_0,0.0,0.00,0.00,0.00,-9.41,6.57,1.50,1,1,1,-14.40,-5.36,-0.81,13.41,0.00,3.00,3.00,10.00,TARP,DOE-2,113.06,138.37,98.75,39.62,8,5,0,Yes
 Zone Information, CONFERENCE_0,0.0,0.00,0.00,0.00,-17.35,-9.25,1.50,1,1,1,-20.13,-14.56,-14.03,-4.47,0.00,3.00,3.00,10.00,TARP,DOE-2,51.74,89.58,62.62,26.96,6,4,0,Yes
 Zone Information, BREAK_ROOM_0,0.0,0.00,0.00,0.00,-12.83,-0.54,1.50,1,1,1,-14.62,-11.03,-3.80,2.72,0.00,3.00,3.00,10.00,TARP,DOE-2,22.42,59.48,41.58,17.90,6,4,0,Yes
 Zone Information, MECHANICAL_0,0.0,0.00,0.00,0.00,17.42,-2.91,1.50,1,1,1,14.01,20.82,-8.62,2.80,0.00,3.00,3.00,10.00,TARP,DOE-2,75.95,108.18,75.63,32.56,6,4,0,Yes
 Zone Information, OFFICE_OPEN_0,0.0,0.00,0.00,0.00,-30.04,-9.51,1.50,1,1,1,-35.10,-24.99,-14.31,-4.70,0.00,3.00,3.00,10.00,TARP,DOE-2,95.24,117.15,81.89,35.26,6,4,0,Yes
 Zone Information, OFFICE_PRIVATE_0,0.0,0.00,0.00,0.00,-20.69,-10.84,1.50,1,1,1,-25.09,-15.02,-14.31,-4.70,0.00,3.00,3.00,10.00,TARP,DOE-2,48.57,117.15,82.14,35.00,8,5,0,Yes
 Zone Information, STORAGE_0,0.0,0.00,0.00,0.00,-10.27,-9.91,1.50,1,1,1,-15.02,-4.96,-14.31,-4.70,0.00,3.00,3.00,10.00,TARP,DOE-2,86.59,117.15,82.39,34.76,10,6,0,Yes
 Zone Information, OFFICE_OPEN_0_2,0.0,0.00,0.00,0.00,-30.04,8.78E-017,1.50,1,1,1,-35.10,-24.99,-4.80,4.80,0.00,3.00,3.00,10.00,TARP,DOE-2,95.24,117.15,81.89,35.26,6,4,0,Yes
 Zone Information, OFFICE_OPEN_0_3,0.0,0.00,0.00,0.00,-20.05,-0.92,1.50,1,1,1,-25.09,-14.97,-4.80,4.80,0.00,3.00,3.00,10.00,TARP,DOE-2,94.06,117.15,82.10,35.05,8,5,0,Yes
 Zone Information, OFFICE_OPEN_0_4,0.0,0.00,0.00,0.00,-12.46,-1.40,1.50,1,1,1,-15.07,-7.04,-4.80,4.75,0.00,3.00,3.00,10.00,TARP,DOE-2,24.10,123.95,88.03,35.92,14,8,0,Yes
 Zone Information, OFFICE_OPEN_0_5,0.0,0.00,0.00,0.00,-30.04,9.51,1.50,1,1,1,-35.10,-24.99,4.70,14.31,0.00,3.00,3.00,10.00,TARP,DOE-2,95.24,117.15,81.89,35.26,6,4,0,Yes
 Zone Information, OFFICE_OPEN_0_6,0.0,0.00,0.00,0.00,-20.03,9.51,1.50,1,1,1,-25.09,-14.97,4.70,14.31,0.00,3.00,3.00,10.00,TARP,DOE-2,95.24,117.15,81.89,35.26,6,4,0,Yes
 Zone Information, LOBBY_1,0.0,0.00,0.00,0.00,7.29,7.95,4.50,1,1,1,3.01,11.13,2.98,12.78,3.00,6.00,3.00,10.00,TARP,DOE-2,61.46,106.33,74.33,32.00,8,6,0,Yes
 Zone Information, CONFERENCE_1,0.0,0.00,0.00,0.00,-20.02,1.82,4.50,1,1,1,-23.42,-16.63,-2.31,5.96,3.00,6.00,3.00,10.00,TARP,DOE-2,54.74,89.22,62.37,26.85,6,4,0,Yes
 Zone Information, BREAK_ROOM_1,0.0,0.00,0.00,0.00,16.82,-8.39,4.50,1,1,1,13.82,19.82,-12.46,-4.32,3.00,6.00,3.00,10.00,TARP,DOE-2,47.49,83.69,58.50,25.19,6,4,0,Yes
 Zone Information, MECHANICAL_1,0.0,0.00,0.00,0.00,-8.87,5.69,4.50,1,1,1,-12.16,-6.09,0.84,9.74,3.00,6.00,3.00,10.00,TARP,DOE-2,46.67,88.63,63.10,25.53,8,5,0,Yes
 Zone Information, OFFICE_OPEN_1,0.0,0.00,0.00,0.00,-30.04,-9.51,4.50,1,1,1,-35.10,-24.99,-14.31,-4.70,3.00,6.00,3.00,10.00,TARP,DOE-2,95.24,117.15,81.89,35.26,6,4,0,Yes
 Zone Information, OFFICE_PRIVATE_1,0.0,0.00,0.00,0.00,-20.03,-9.51,4.50,1,1,1,-25.09,-14.97,-14.31,-4.70,3.00,6.00,3.00,10.00,TARP,DOE-2,95.24,117.15,81.89,35.26,6,4,0,Yes
 Zone Information, STORAGE_1,0.0,0.00,0.00,0.00,-9.47,-9.07,4.50,1,1,1,-15.07,-4.96,-14.31,-4.70,3.00,6.00,3.00,10.00,TARP,DOE-2,90.39,117.15,81.89,35.26,8,6,0,Yes
 Zone Information, OFFICE_OPEN_1_2,0.0,0.00,0.00,0.00,-30.04,4.92E-016,4.50,1,1,1,-35.10,-24.99,-4.80,4.80,3.00,6.00,3.00,10.00,TARP,DOE-2,95.24,117.15,81.89,35.26,6,4,0,Yes
 Zone Information, OFFICE_OPEN_1_3,0.0,0.00,0.00,0.00,-20.03,-0.11,4.50,1,1,1,-25.09,-14.97,-4.80,4.75,3.00,6.00,3.00,10.00,TARP,DOE-2,48.23,159.24,113.32,45.92,10,6,0,Yes
 Zone Information, OFFICE_OPEN_1_4,0.0,0.00,0.00,0.00,-11.51,-0.12,4.50,1,1,1,-15.07,-7.04,-4.80,4.80,3.00,6.00,3.00,10.00,TARP,DOE-2,56.05,104.67,73.17,31.50,8,6,0,Yes
 Zone Information, OFFICE_OPEN_1_5,0.0,0.00,0.00,0.00,-30.04,9.51,4.50,1,1,1,-35.10,-24.99,4.70,14.31,3.00,6.00,3.00,10.00,TARP,DOE-2,95.24,117.15,81.89,35.26,6,4,0,Yes
 Zone Information, OFFICE_OPEN_1_6,0.0,0.00,0.00,0.00,-20.03,8.27,4.50,1,1,1,-25.09,-14.97,4.75,14.31,3.00,6.00,3.00,10.00,TARP,DOE-2,87.51,124.07,92.80,31.27,10,4,0,Yes
 Zone Information, OFFICE_OPEN_1_7,0.0,0.00,0.00,0.00,-9.94,9.54,4.50,1,1,1,-15.07,-4.96,4.70,14.31,3.00,6.00,3.00,10.00,TARP,DOE-2,63.13,132.75,94.15,38.60,10,7,0,Yes
 Zone Information, LOBBY_2,0.0,0.00,0.00,0.00,-8.26,-5.46,7.50,1,1,1,-12.08,-4.25,-9.56,-2.19E-002,6.00,9.00,3.00,10.00,TARP,DOE-2,53.37,102.98,71.98,30.99,8,6,0,Yes
 Zone Information, CONFERENCE_2,0.0,0.00,0.00,0.00,-31.98,1.07,7.50,1,1,1,-35.09,-28.86,-2.24,4.37,6.00,9.00,3.00,10.00,TARP,DOE-2,39.99,75.92,53.07,22.85,6,4,0,Yes
 Zone Information, BREAK_ROOM_2,0.0,0.00,0.00,0.00,-30.77,4.91,7.50,1,1,1,-35.05,-26.49,0.39,9.42,6.00,9.00,3.00,10.00,TARP,DOE-2,75.58,104.36,72.95,31.41,6,4,0,Yes
 Zone Information, MECHANICAL_2,0.0,0.00,0.00,0.00,-11.03,-2.46,7.50,1,1,1,-14.44,-7.62,-6.69,1.77,6.00,9.00,3.00,10.00,TARP,DOE-2,56.15,90.46,63.23,27.22,6,4,0,Yes
 Zone Information, OFFICE_OPEN_2,0.0,0.00,0.00,0.00,-30.04,-9.51,7.50,1,1,1,-35.10,-24.99,-14.31,-4.70,6.00,9.00,3.00,10.00,TARP,DOE-2,95.24,117.15,81.89,35.26,6,4,0,Yes
 Zone Information, OFFICE_PRIVATE_2,0.0,0.00,0.00,0.00,-20.03,-9.51,7.50,1,1,1,-25.09,-14.97,-14.31,-4.70,6.00,9.00,3.00,10.00,TARP,DOE-2,95.24,117.15,81.89,35.26,6,4,0,Yes
 Zone Information, STORAGE_2,0.0,0.00,0.00,0.00,-11.29,-9.64,7.50,1,1,1,-15.07,-4.96,-14.31,-4.75,6.00,9.00,3.00,10.00,TARP,DOE-2,57.41,117.15,83.97,33.18,10,6,0,Yes
 Zone Information, OFFICE_OPEN_2_2,0.0,0.00,0.00,0.00,-30.56,-1.70E-003,7.50,1,1,1,-35.10,-24.99,-4.80,4.75,6.00,9.00,3.00,10.00,TARP,DOE-2,42.40,159.09,112.59,46.50,14,8,0,Yes
 Zone Information, OFFICE_OPEN_2_3,0.0,0.00,0.00,0.00,-20.03,-2.68E-016,7.50,1,1,1,-25.09,-14.97,-4.80,4.80,6.00,9.00,3.00,10.00,TARP,DOE-2,95.24,117.15,81.89,35.26,6,4,0,Yes
 Zone Information, OFFICE_OPEN_2_4,0.0,0.00,0.00,0.00,-11.64,0.99,7.50,1,1,1,-15.07,-7.04,-4.75,4.80,6.00,9.00,3.00,10.00,TARP,DOE-2,29.21,115.44,83.78,31.66,10,5,0,Yes
 Zone Information, OFFICE_OPEN_2_5,0.0,0.00,0.00,0.00,-30.28,9.17,7.50,1,1,1,-35.10,-24.99,4.75,14.31,6.00,9.00,3.00,10.00,TARP,DOE-2,56.17,144.85,103.12,41.73,10,6,0,Yes
 Zone Information, OFFICE_OPEN_2_6,0.0,0.00,0.00,0.00,-20.03,9.51,7.50,1,1,1,-25.09,-14.97,4.70,14.31,6.00,9.00,3.00,10.00,TARP,DOE-2,95.24,117.15,81.89,35.26,6,4,0,Yes
 Zone Information, OFFICE_OPEN_2_7,0.0,0.00,0.00,0.00,-9.47,9.07,7.50,1,1,1,-15.07,-4.96,4.70,14.31,6.00,9.00,3.00,10.00,TARP,DOE-2,90.39,117.15,81.89,35.26,8,6,0,Yes
 Zone Information, LOBBY_3,0.0,0.00,0.00,0.00,15.06,3.09,10.50,1,1,1,9.19,20.93,-4.80,10.99,9.00,12.00,3.00,10.00,TARP,DOE-2,182.56,163.95,114.60,49.34,6,4,0,Yes
 Zone Information, CONFERENCE_3,0.0,0.00,0.00,0.00,8.43,7.87,10.50,1,1,1,5.52,11.70,2.31,13.53,9.00,12.00,3.00,10.00,TARP,DOE-2,60.52,103.28,74.02,29.25,8,5,0,Yes
 Zone Information, BREAK_ROOM_3,0.0,0.00,0.00,0.00,24.93,-10.09,10.50,1,1,1,23.12,26.74,-13.26,-6.92,9.00,12.00,3.00,10.00,TARP,DOE-2,21.92,58.52,40.91,17.61,6,4,0,Yes
 Zone Information, MECHANICAL_3,0.0,0.00,0.00,0.00,18.12,6.07,10.50,1,1,1,13.65,22.59,0.81,11.34,9.00,12.00,3.00,10.00,TARP,DOE-2,92.14,115.58,80.79,34.79,6,4,0,Yes
 Zone Information, OFFICE_OPEN_3,0.0,0.00,0.00,0.00,-30.04,-9.51,10.50,1,1,1,-35.10,-24.99,-14.31,-4.70,9.00,12.00,3.00,10.00,TARP,DOE-2,95.24,117.15,81.89,35.26,6,4,0,Yes
 Zone Information, OFFICE_PRIVATE_3,0.0,0.00,0.00,0.00,-20.03,-9.51,10.50,1,1,1,-25.09,-14.97,-14.31,-4.70,9.00,12.00,3.00,10.00,TARP,DOE-2,95.24,117.15,81.89,35.26,6,4,0,Yes
 Zone Information, STORAGE_3,0.0,0.00,0.00,0.00,-9.47,-9.07,10.50,1,1,1,-15.07,-4.96,-14.31,-4.70,9.00,12.00,3.00,10.00,TARP,DOE-2,90.39,117.15,81.89,35.26,8,6,0,Yes
 Zone Information, OFFICE_OPEN_3_2,0.0,0.00,0.00,0.00,-30.04,9.95E-016,10.50,1,1,1,-35.10,-24.99,-4.80,4.80,9.00,12.00,3.00,10.00,TARP,DOE-2,95.24,117.15,81.89,35.26,6,4,0,Yes
 Zone Information, OFFICE_OPEN_3_3,0.0,0.00,0.00,0.00,-20.03,3.39E-016,10.50,1,1,1,-25.09,-14.97,-4.80,4.80,9.00,12.00,3.00,10.00,TARP,DOE-2,95.24,117.15,81.89,35.26,6,4,0,Yes
 Zone Information, OFFICE_OPEN_3_4,0.0,0.00,0.00,0.00,-11.05,-7.61E-016,10.50,1,1,1,-15.07,-7.04,-4.80,4.80,9.00,12.00,3.00,10.00,TARP,DOE-2,75.46,104.67,73.17,31.50,6,4,0,Yes
 Zone Information, OFFICE_OPEN_3_5,0.0,0.00,0.00,0.00,-30.04,9.51,10.50,1,1,1,-35.10,-24.99,4.70,14.31,9.00,12.00,3.00,10.00,TARP,DOE-2,95.24,117.15,81.89,35.26,6,4,0,Yes
 Zone Information, OFFICE_OPEN_3_6,0.0,0.00,0.00,0.00,-20.03,9.51,10.50,1,1,1,-25.09,-14.97,4.70,14.31,9.00,12.00,3.00,10.00,TARP,DOE-2,95.24,117.15,81.89,35.26,6,4,0,Yes
 Zone Information, OFFICE_OPEN_3_7,0.0,0.00,0.00,0.00,-9.47,9.07,10.50,1,1,1,-15.07,-4.96,4.70,14.31,9.00,12.00,3.00,10.00,TARP,DOE-2,90.39,117.15,81.89,35.26,8,6,0,Yes
 Zone Information, LOBBY_4,0.0,0.00,0.00,0.00,-27.06,-7.98,13.50,1,1,1,-31.37,-22.75,-13.34,-2.62,12.00,15.00,3.00,10.00,TARP,DOE-2,90.48,114.84,80.27,34.56,6,4,0,Yes
 Zone Information, CONFERENCE_4,0.0,0.00,0.00,0.00,17.20,9.76,13.50,1,1,1,12.85,21.56,5.39,14.13,12.00,15.00,3.00,10.00,TARP,DOE-2,74.34,103.46,72.32,31.14,6,4,0,Yes
 Zone Information, BREAK_ROOM_4,0.0,0.00,0.00,0.00,5.64,-8.64,13.50,1,1,1,1.37,8.76,-12.95,-4.42,12.00,15.00,3.00,10.00,TARP,DOE-2,46.71,94.63,67.13,27.50,8,5,0,Yes
 Zone Information, MECHANICAL_4,0.0,0.00,0.00,0.00,29.39,-4.85,13.50,1,1,1,26.59,32.19,-10.22,0.52,12.00,15.00,3.00,10.00,TARP,DOE-2,58.51,96.84,67.70,29.15,6,4,0,Yes
 Zone Information, OFFICE_OPEN_4,0.0,0.00,0.00,0.00,-31.02,-10.84,13.50,1,1,1,-35.10,-25.04,-14.31,-4.70,12.00,15.00,3.00,10.00,TARP,DOE-2,41.61,117.15,82.77,34.38,8,5,0,Yes
 Zone Information, OFFICE_PRIVATE_4,0.0,0.00,0.00,0.00,-20.34,-10.43,13.50,1,1,1,-25.04,-14.97,-14.31,-4.70,12.00,15.00,3.00,10.00,TARP,DOE-2,76.12,117.15,82.77,34.38,8,5,0,Yes
 Zone Information, STORAGE_4,0.0,0.00,0.00,0.00,-9.47,-9.07,13.50,1,1,1,-15.07,-4.96,-14.31,-4.70,12.00,15.00,3.00,10.00,TARP,DOE-2,90.39,117.15,81.89,35.26,8,6,0,Yes
 Zone Information, OFFICE_OPEN_4_2,0.0,0.00,0.00,0.00,-30.43,-0.38,13.50,1,1,1,-35.10,-24.99,-4.80,4.80,12.00,15.00,3.00,10.00,TARP,DOE-2,82.16,117.15,81.89,35.26,8,6,0,Yes
 Zone Information, OFFICE_OPEN_4_3,0.0,0.00,0.00,0.00,-20.54,-0.49,13.50,1,1,1,-25.09,-14.97,-4.80,4.80,12.00,15.00,3.00,10.00,TARP,DOE-2,90.58,117.15,81.89,35.26,8,6,0,Yes
 Zone Information, OFFICE_OPEN_4_4,0.0,0.00,0.00,0.00,-11.05,-4.55E-016,13.50,1,1,1,-15.07,-7.04,-4.80,4.80,12.00,15.00,3.00,10.00,TARP,DOE-2,75.46,104.67,73.17,31.50,6,4,0,Yes
 Zone Information, OFFICE_OPEN_4_5,0.0,0.00,0.00,0.00,-30.04,9.51,13.50,1,1,1,-35.10,-24.99,4.70,14.31,12.00,15.00,3.00,10.00,TARP,DOE-2,95.24,117.15,81.89,35.26,6,4,0,Yes
 Zone Information, OFFICE_OPEN_4_6,0.0,0.00,0.00,0.00,-20.03,9.51,13.50,1,1,1,-25.09,-14.97,4.70,14.31,12.00,15.00,3.00,10.00,TARP,DOE-2,95.24,117.15,81.89,35.26,6,4,0,Yes
 Zone Information, OFFICE_OPEN_4_7,0.0,0.00,0.00,0.00,-9.47,9.07,13.50,1,1,1,-15.07,-4.96,4.70,14.31,12.00,15.00,3.00,10.00,TARP,DOE-2,90.39,117.15,81.89,35.26,8,6,0,Yes
! <Zone Internal Gains Nominal>,Zone Name, Floor Area {m2},# Occupants,Area per Occupant {m2/person},Occupant per Area {person/m2},Interior Lighting {W/m2},Electric Load {W/m2},Gas Load {W/m2},Other Load {W/m2},Hot Water Eq {W/m2},Steam Equipment {W/m2},Sum Loads per Area {W/m2},Outdoor Controlled Baseboard Heat
 Zone Internal Gains Nominal, LOBBY_0,113.06,5.0,22.612,4.422E-002,12.900,3.200,0.000,0.000,0.000,0.000,16.100,No
 Zone Internal Gains Nominal, CONFERENCE_0,51.74,10.0,5.174,0.193,10.800,8.100,0.000,0.000,0.000,0.000,18.900,No
 Zone Internal Gains Nominal, BREAK_ROOM_0,22.42,2.0,11.210,8.921E-002,8.100,15.000,0.000,0.000,0.000,0.000,23.100,No
 Zone Internal Gains Nominal, MECHANICAL_0,75.95,1.0,75.946,1.317E-002,5.400,0.000,0.000,0.000,0.000,0.000,5.400,No
 Zone Internal Gains Nominal, OFFICE_OPEN_0,95.24,4.0,23.809,4.200E-002,10.800,8.100,0.000,0.000,0.000,0.000,18.900,No
 Zone Internal Gains Nominal, OFFICE_PRIVATE_0,48.57,2.0,24.283,4.118E-002,10.800,8.100,0.000,0.000,0.000,0.000,18.900,No
 Zone Internal Gains Nominal, STORAGE_0,86.59,1.0,86.594,1.155E-002,5.400,1.100,0.000,0.000,0.000,0.000,6.500,No
 Zone Internal Gains Nominal, OFFICE_OPEN_0_2,95.24,4.0,23.809,4.200E-002,10.800,8.100,0.000,0.000,0.000,0.000,18.900,No
 Zone Internal Gains Nominal, OFFICE_OPEN_0_3,94.06,4.0,23.516,4.253E-002,10.800,8.100,0.000,0.000,0.000,0.000,18.900,No
 Zone Internal Gains Nominal, OFFICE_OPEN_0_4,24.10,1.0,24.100,4.149E-002,10.800,8.100,0.000,0.000,0.000,0.000,18.900,No
 Zone Internal Gains Nominal, OFFICE_OPEN_0_5,95.24,4.0,23.809,4.200E-002,10.800,8.100,0.000,0.000,0.000,0.000,18.900,No
 Zone Internal Gains Nominal, OFFICE_OPEN_0_6,95.24,4.0,23.809,4.200E-002,10.800,8.100,0.000,0.000,0.000,0.000,18.900,No
 Zone Internal Gains Nominal, LOBBY_1,61.46,3.0,20.488,4.881E-002,12.900,3.200,0.000,0.000,0.000,0.000,16.100,No
 Zone Internal Gains Nominal, CONFERENCE_1,54.74,10.0,5.474,0.183,10.800,8.100,0.000,0.000,0.000,0.000,18.900,No
 Zone Internal Gains Nominal, BREAK_ROOM_1,47.49,4.0,11.872,8.423E-002,8.100,15.000,0.000,0.000,0.000,0.000,23.100,No
 Zone Internal Gains Nominal, MECHANICAL_1,46.67,1.0,46.673,2.143E-002,5.400,0.000,0.000,0.000,0.000,0.000,5.400,No
 Zone Internal Gains Nominal, OFFICE_OPEN_1,95.24,4.0,23.809,4.200E-002,10.800,8.100,0.000,0.000,0.000,0.000,18.900,No
 Zone Internal Gains Nominal, OFFICE_PRIVATE_1,95.24,4.0,23.809,4.200E-002,10.800,8.100,0.000,0.000,0.000,0.000,18.900,No
 Zone Internal Gains Nominal, STORAGE_1,90.39,1.0,90.387,1.106E-002,5.400,1.100,0.000,0.000,0.000,0.000,6.500,No
 Zone Internal Gains Nominal, OFFICE_OPEN_1_2,95.24,4.0,23.809,4.200E-002,10.800,8.100,0.000,0.000,0.000,0.000,18.900,No
 Zone Internal Gains Nominal, OFFICE_OPEN_1_3,48.23,2.0,24.116,4.147E-002,10.800,8.100,0.000,0.000,0.000,0.000,18.900,No
 Zone Internal Gains Nominal, OFFICE_OPEN_1_4,56.05,2.0,28.023,3.569E-002,10.800,8.100,0.000,0.000,0.000,0.000,18.900,No
 Zone Internal Gains Nominal, OFFICE_OPEN_1_5,95.24,4.0,23.809,4.200E-002,10.800,8.100,0.000,0.000,0.000,0.000,18.900,No
 Zone Internal Gains Nominal, OFFICE_OPEN_1_6,87.51,4.0,21.876,4.571E-002,10.800,8.100,0.000,0.000,0.000,0.000,18.900,No
 Zone Internal Gains Nominal, OFFICE_OPEN_1_7,63.13,3.0,21.043,4.752E-002,10.800,8.100,0.000,0.000,0.000,0.000,18.900,No
 Zone Internal Gains Nominal, LOBBY_2,53.37,2.0,26.686,3.747E-002,12.900,3.200,0.000,0.000,0.000,0.000,16.100,No
 Zone Internal Gains Nominal, CONFERENCE_2,39.99,7.0,5.713,0.175,10.800,8.100,0.000,0.000,0.000,0.000,18.900,No
 Zone Internal Gains Nominal, BREAK_ROOM_2,75.58,7.0,10.797,9.262E-002,8.100,15.000,0.000,0.000,0.000,0.000,23.100,No
 Zone Internal Gains Nominal, MECHANICAL_2,56.15,1.0,56.147,1.781E-002,5.400,0.000,0.000,0.000,0.000,0.000,5.400,No
 Zone Internal Gains Nominal, OFFICE_OPEN_2,95.24,4.0,23.809,4.200E-002,10.800,8.100,0.000,0.000,0.000,0.000,18.900,No
 Zone Internal Gains Nominal, OFFICE_PRIVATE_2,95.24,4.0,23.809,4.200E-002,10.800,8.100,0.000,0.000,0.000,0.000,18.900,No
 Zone Internal Gains Nominal, STORAGE_2,57.41,1.0,57.409,1.742E-002,5.400,1.100,0.000,0.000,0.000,0.000,6.500,No
 Zone Internal Gains Nominal, OFFICE_OPEN_2_2,42.40,2.0,21.200,4.717E-002,10.800,8.100,0.000,0.000,0.000,0.000,18.900,No
 Zone Internal Gains Nominal, OFFICE_OPEN_2_3,95.24,4.0,23.810,4.200E-002,10.800,8.100,0.000,0.000,0.000,0.000,18.900,No
 Zone Internal Gains Nominal, OFFICE_OPEN_2_4,29.21,1.0,29.215,3.423E-002,10.800,8.100,0.000,0.000,0.000,0.000,18.900,No
 Zone Internal Gains Nominal, OFFICE_OPEN_2_5,56.17,2.0,28.085,3.561E-002,10.800,8.100,0.000,0.000,0.000,0.000,18.900,No
 Zone Internal Gains Nominal, OFFICE_OPEN_2_6,95.24,4.0,23.809,4.200E-002,10.800,8.100,0.000,0.000,0.000,0.000,18.900,No
 Zone Internal Gains Nominal, OFFICE_OPEN_2_7,90.39,4.0,22.597,4.425E-002,10.800,8.100,0.000,0.000,0.000,0.000,18.900,No
 Zone Internal Gains Nominal, LOBBY_3,182.56,9.0,20.285,4.930E-002,12.900,3.200,0.000,0.000,0.000,0.000,16.100,No
 Zone Internal Gains Nominal, CONFERENCE_3,60.52,12.0,5.043,0.198,10.800,8.100,0.000,0.000,0.000,0.000,18.900,No
 Zone Internal Gains Nominal, BREAK_ROOM_3,21.92,2.0,10.960,9.124E-002,8.100,15.000,0.000,0.000,0.000,0.000,23.100,No
 Zone Internal Gains Nominal, MECHANICAL_3,92.14,1.0,92.140,1.085E-002,5.400,0.000,0.000,0.000,0.000,0.000,5.400,No
 Zone Internal Gains Nominal, OFFICE_OPEN_3,95.24,4.0,23.809,4.200E-002,10.800,8.100,0.000,0.000,0.000,0.000,18.900,No
 Zone Internal Gains Nominal, OFFICE_PRIVATE_3,95.24,4.0,23.809,4.200E-002,10.800,8.100,0.000,0.000,0.000,0.000,18.900,No
 Zone Internal Gains Nominal, STORAGE_3,90.39,1.0,90.387,1.106E-002,5.400,1.100,0.000,0.000,0.000,0.000,6.500,No
 Zone Internal Gains Nominal, OFFICE_OPEN_3_2,95.24,4.0,23.809,4.200E-002,10.800,8.100,0.000,0.000,0.000,0.000,18.900,No
 Zone Internal Gains Nominal, OFFICE_OPEN_3_3,95.24,4.0,23.810,4.200E-002,10.800,8.100,0.000,0.000,0.000,0.000,18.900,No
 Zone Internal Gains Nominal, OFFICE_OPEN_3_4,75.46,3.0,25.154,3.976E-002,10.800,8.100,0.000,0.000,0.000,0.000,18.900,No
 Zone Internal Gains Nominal, OFFICE_OPEN_3_5,95.24,4.0,23.809,4.200E-002,10.800,8.100,0.000,0.000,0.000,0.000,18.900,No
 Zone Internal Gains Nominal, OFFICE_OPEN_3_6,95.24,4.0,23.809,4.200E-002,10.800,8.100,0.000,0.000,0.000,0.000,18.900,No
 Zone Internal Gains Nominal, OFFICE_OPEN_3_7,90.39,4.0,22.597,4.425E-002,10.800,8.100,0.000,0.000,0.000,0.000,18.900,No
 Zone Internal Gains Nominal, LOBBY_4,90.48,4.0,22.620,4.421E-002,12.900,3.200,0.000,0.000,0.000,0.000,16.100,No
 Zone Internal Gains Nominal, CONFERENCE_4,74.34,14.0,5.310,0.188,10.800,8.100,0.000,0.000,0.000,0.000,18.900,No
 Zone Internal Gains Nominal, BREAK_ROOM_4,46.71,4.0,11.677,8.564E-002,8.100,15.000,0.000,0.000,0.000,0.000,23.100,No
 Zone Internal Gains Nominal, MECHANICAL_4,58.51,1.0,58.511,1.709E-002,5.400,0.000,0.000,0.000,0.000,0.000,5.400,No
 Zone Internal Gains Nominal, OFFICE_OPEN_4,41.61,2.0,20.805,4.806E-002,10.800,8.100,0.000,0.000,0.000,0.000,18.900,No
 Zone Internal Gains Nominal, OFFICE_PRIVATE_4,76.12,3.0,25.372,3.941E-002,10.800,8.100,0.000,0.000,0.000,0.000,18.900,No
 Zone Internal Gains Nominal, STORAGE_4,90.39,1.0,90.387,1.106E-002,5.400,1.100,0.000,0.000,0.000,0.000,6.500,No
 Zone Internal Gains Nominal, OFFICE_OPEN_4_2,82.16,4.0,20.541,4.868E-002,10.800,8.100,0.000,0.000,0.000,0.000,18.900,No
 Zone Internal Gains Nominal, OFFICE_OPEN_4_3,90.58,4.0,22.644,4.416E-002,10.800,8.100,0.000,0.000,0.000,0.000,18.900,No
 Zone Internal Gains Nominal, OFFICE_OPEN_4_4,75.46,3.0,25.154,3.976E-002,10.800,8.100,0.000,0.000,0.000,0.000,18.900,No
 Zone Internal Gains Nominal, OFFICE_OPEN_4_5,95.24,4.0,23.809,4.200E-002,10.800,8.100,0.000,0.000,0.000,0.000,18.900,No
 Zone Internal Gains Nominal, OFFICE_OPEN_4_6,95.24,4.0,23.809,4.200E-002,10.800,8.100,0.000,0.000,0.000,0.000,18.900,No
 Zone Internal Gains Nominal, OFFICE_OPEN_4_7,90.39,4.0,22.597,4.425E-002,10.800,8.100,0.000,0.000,0.000,0.000,18.900,No
! <People Internal Gains Nominal>,Name,Schedule Name,Zone Name,Zone Floor Area {m2},# Zone Occupants,Number of People {},People/Floor Area {person/m2},Floor Area per person {m2/person},Fraction Radiant,Fraction Convected,Sensible Fraction Calculation,Activity level,ASHRAE 55 Warnings,Carbon Dioxide Generation Rate,Minimum Number of People for All Day Types,Maximum Number of People for All Day Types,Minimum Number of People for Weekdays, Maximum Number of People for Weekdays, Minimum Number of People for Weekends/Holidays, Maximum Number of People for Weekends /Holidays,Minimum Number of People for Summer Design Days, Maximum Number of People for Summer Design Days,Minimum Number of People for Winter Design Days, Maximum Number of People for Winter Design Days
 People Internal Gains Nominal, LOBBY_0_PEOPLE,LOBBY_OCCUPANCY,LOBBY_0,113.06,5.0,5.0,4.422E-002,22.612,0.300,0.700,0.100,LOBBY_ACTIVITY,No,3.8200E-008,1.0,1.0,1.0,1.0,1.0,1.0,1.0,1.0,1.0,1.0,
 People Internal Gains Nominal, CONFERENCE_0_PEOPLE,CONFERENCE_OCCUPANCY,CONFERENCE_0,51.74,10.0,10.0,0.193,5.174,0.300,0.700,0.100,CONFERENCE_ACTIVITY,No,3.8200E-008,0.0,10.0,0.0,10.0,0.0,1.0,0.0,0.0,0.0,0.0,
 People Internal Gains Nominal, BREAK_ROOM_0_PEOPLE,BREAK_ROOM_OCCUPANCY,BREAK_ROOM_0,22.42,2.0,2.0,8.921E-002,11.210,0.300,0.700,0.100,BREAK_ROOM_ACTIVITY,No,3.8200E-008,0.4,0.4,0.4,0.4,0.4,0.4,0.4,0.4,0.4,0.4,
 People Internal Gains Nominal, MECHANICAL_0_PEOPLE,MECHANICAL_OCCUPANCY,MECHANICAL_0,75.95,1.0,1.0,1.317E-002,75.946,0.300,0.700,0.100,MECHANICAL_ACTIVITY,No,3.8200E-008,0.2,0.2,0.2,0.2,0.2,0.2,0.2,0.2,0.2,0.2,
 People Internal Gains Nominal, OFFICE_OPEN_0_PEOPLE,OFFICE_OPEN_OCCUPANCY,OFFICE_OPEN_0,95.24,4.0,4.0,4.200E-002,23.809,0.300,0.700,0.100,OFFICE_OPEN_ACTIVITY,No,3.8200E-008,0.0,4.0,0.0,4.0,0.0,0.4,0.0,0.0,0.0,0.0,
 People Internal Gains Nominal, OFFICE_PRIVATE_0_PEOPLE,OFFICE_OPEN_OCCUPANCY,OFFICE_PRIVATE_0,48.57,2.0,2.0,4.118E-002,24.283,0.300,0.700,0.100,OFFICE_OPEN_ACTIVITY,No,3.8200E-008,0.0,2.0,0.0,2.0,0.0,0.2,0.0,0.0,0.0,0.0,
 People Internal Gains Nominal, STORAGE_0_PEOPLE,STORAGE_OCCUPANCY,STORAGE_0,86.59,1.0,1.0,1.155E-002,86.594,0.300,0.700,0.100,STORAGE_ACTIVITY,No,3.8200E-008,0.2,0.2,0.2,0.2,0.2,0.2,0.2,0.2,0.2,0.2,
 People Internal Gains Nominal, OFFICE_OPEN_0_2_PEOPLE,OFFICE_OPEN_OCCUPANCY,OFFICE_OPEN_0_2,95.24,4.0,4.0,4.200E-002,23.809,0.300,0.700,0.100,OFFICE_OPEN_ACTIVITY,No,3.8200E-008,0.0,4.0,0.0,4.0,0.0,0.4,0.0,0.0,0.0,0.0,
 People Internal Gains Nominal, OFFICE_OPEN_0_3_PEOPLE,OFFICE_OPEN_OCCUPANCY,OFFICE_OPEN_0_3,94.06,4.0,4.0,4.253E-002,23.516,0.300,0.700,0.100,OFFICE_OPEN_ACTIVITY,No,3.8200E-008,0.0,4.0,0.0,4.0,0.0,0.4,0.0,0.0,0.0,0.0,
 People Internal Gains Nominal, OFFICE_OPEN_0_4_PEOPLE,OFFICE_OPEN_OCCUPANCY,OFFICE_OPEN_0_4,24.10,1.0,1.0,4.149E-002,24.100,0.300,0.700,0.100,OFFICE_OPEN_ACTIVITY,No,3.8200E-008,0.0,1.0,0.0,1.0,0.0,0.1,0.0,0.0,0.0,0.0,
 People Internal Gains Nominal, OFFICE_OPEN_0_5_PEOPLE,OFFICE_OPEN_OCCUPANCY,OFFICE_OPEN_0_5,95.24,4.0,4.0,4.200E-002,23.809,0.300,0.700,0.100,OFFICE_OPEN_ACTIVITY,No,3.8200E-008,0.0,4.0,0.0,4.0,0.0,0.4,0.0,0.0,0.0,0.0,
 People Internal Gains Nominal, OFFICE_OPEN_0_6_PEOPLE,OFFICE_OPEN_OCCUPANCY,OFFICE_OPEN_0_6,95.24,4.0,4.0,4.200E-002,23.809,0.300,0.700,0.100,OFFICE_OPEN_ACTIVITY,No,3.8200E-008,0.0,4.0,0.0,4.0,0.0,0.4,0.0,0.0,0.0,0.0,
 People Internal Gains Nominal, LOBBY_1_PEOPLE,LOBBY_OCCUPANCY,LOBBY_1,61.46,3.0,3.0,4.881E-002,20.488,0.300,0.700,0.100,LOBBY_ACTIVITY,No,3.8200E-008,0.6,0.6,0.6,0.6,0.6,0.6,0.6,0.6,0.6,0.6,
 People Internal Gains Nominal, CONFERENCE_1_PEOPLE,CONFERENCE_OCCUPANCY,CONFERENCE_1,54.74,10.0,10.0,0.183,5.474,0.300,0.700,0.100,CONFERENCE_ACTIVITY,No,3.8200E-008,0.0,10.0,0.0,10.0,0.0,1.0,0.0,0.0,0.0,0.0,
 People Internal Gains Nominal, BREAK_ROOM_1_PEOPLE,BREAK_ROOM_OCCUPANCY,BREAK_ROOM_1,47.49,4.0,4.0,8.423E-002,11.872,0.300,0.700,0.100,BREAK_ROOM_ACTIVITY,No,3.8200E-008,0.8,0.8,0.8,0.8,0.8,0.8,0.8,0.8,0.8,0.8,
 People Internal Gains Nominal, MECHANICAL_1_PEOPLE,MECHANICAL_OCCUPANCY,MECHANICAL_1,46.67,1.0,1.0,2.143E-002,46.673,0.300,0.700,0.100,MECHANICAL_ACTIVITY,No,3.8200E-008,0.2,0.2,0.2,0.2,0.2,0.2,0.2,0.2,0.2,0.2,
 People Internal Gains Nominal, OFFICE_OPEN_1_PEOPLE,OFFICE_OPEN_OCCUPANCY,OFFICE_OPEN_1,95.24,4.0,4.0,4.200E-002,23.809,0.300,0.700,0.100,OFFICE_OPEN_ACTIVITY,No,3.8200E-008,0.0,4.0,0.0,4.0,0.0,0.4,0.0,0.0,0.0,0.0,
 People Internal Gains Nominal, OFFICE_PRIVATE_1_PEOPLE,OFFICE_OPEN_OCCUPANCY,OFFICE_PRIVATE_1,95.24,4.0,4.0,4.200E-002,23.809,0.300,0.700,0.100,OFFICE_OPEN_ACTIVITY,No,3.8200E-008,0.0,4.0,0.0,4.0,0.0,0.4,0.0,0.0,0.0,0.0,
 People Internal Gains Nominal, STORAGE_1_PEOPLE,STORAGE_OCCUPANCY,STORAGE_1,90.39,1.0,1.0,1.106E-002,90.387,0.300,0.700,0.100,STORAGE_ACTIVITY,No,3.8200E-008,0.2,0.2,0.2,0.2,0.2,0.2,0.2,0.2,0.2,0.2,
 People Internal Gains Nominal, OFFICE_OPEN_1_2_PEOPLE,OFFICE_OPEN_OCCUPANCY,OFFICE_OPEN_1_2,95.24,4.0,4.0,4.200E-002,23.809,0.300,0.700,0.100,OFFICE_OPEN_ACTIVITY,No,3.8200E-008,0.0,4.0,0.0,4.0,0.0,0.4,0.0,0.0,0.0,0.0,
 People Internal Gains Nominal, OFFICE_OPEN_1_3_PEOPLE,OFFICE_OPEN_OCCUPANCY,OFFICE_OPEN_1_3,48.23,2.0,2.0,4.147E-002,24.116,0.300,0.700,0.100,OFFICE_OPEN_ACTIVITY,No,3.8200E-008,0.0,2.0,0.0,2.0,0.0,0.2,0.0,0.0,0.0,0.0,
 People Internal Gains Nominal, OFFICE_OPEN_1_4_PEOPLE,OFFICE_OPEN_OCCUPANCY,OFFICE_OPEN_1_4,56.05,2.0,2.0,3.569E-002,28.023,0.300,0.700,0.100,OFFICE_OPEN_ACTIVITY,No,3.8200E-008,0.0,2.0,0.0,2.0,0.0,0.2,0.0,0.0,0.0,0.0,
 People Internal Gains Nominal, OFFICE_OPEN_1_5_PEOPLE,OFFICE_OPEN_OCCUPANCY,OFFICE_OPEN_1_5,95.24,4.0,4.0,4.200E-002,23.809,0.300,0.700,0.100,OFFICE_OPEN_ACTIVITY,No,3.8200E-008,0.0,4.0,0.0,4.0,0.0,0.4,0.0,0.0,0.0,0.0,
 People Internal Gains Nominal, OFFICE_OPEN_1_6_PEOPLE,OFFICE_OPEN_OCCUPANCY,OFFICE_OPEN_1_6,87.51,4.0,4.0,4.571E-002,21.876,0.300,0.700,0.100,OFFICE_OPEN_ACTIVITY,No,3.8200E-008,0.0,4.0,0.0,4.0,0.0,0.4,0.0,0.0,0.0,0.0,
 People Internal Gains Nominal, OFFICE_OPEN_1_7_PEOPLE,OFFICE_OPEN_OCCUPANCY,OFFICE_OPEN_1_7,63.13,3.0,3.0,4.752E-002,21.043,0.300,0.700,0.100,OFFICE_OPEN_ACTIVITY,No,3.8200E-008,0.0,3.0,0.0,3.0,0.0,0.3,0.0,0.0,0.0,0.0,
 People Internal Gains Nominal, LOBBY_2_PEOPLE,LOBBY_OCCUPANCY,LOBBY_2,53.37,2.0,2.0,3.747E-002,26.686,0.300,0.700,0.100,LOBBY_ACTIVITY,No,3.8200E-008,0.4,0.4,0.4,0.4,0.4,0.4,0.4,0.4,0.4,0.4,
 People Internal Gains Nominal, CONFERENCE_2_PEOPLE,CONFERENCE_OCCUPANCY,CONFERENCE_2,39.99,7.0,7.0,0.175,5.713,0.300,0.700,0.100,CONFERENCE_ACTIVITY,No,3.8200E-008,0.0,7.0,0.0,7.0,0.0,0.7,0.0,0.0,0.0,0.0,
 People Internal Gains Nominal, BREAK_ROOM_2_PEOPLE,BREAK_ROOM_OCCUPANCY,BREAK_ROOM_2,75.58,7.0,7.0,9.262E-002,10.797,0.300,0.700,0.100,BREAK_ROOM_ACTIVITY,No,3.8200E-008,1.4,1.4,1.4,1.4,1.4,1.4,1.4,1.4,1.4,1.4,
 People Internal Gains Nominal, MECHANICAL_2_PEOPLE,MECHANICAL_OCCUPANCY,MECHANICAL_2,56.15,1.0,1.0,1.781E-002,56.147,0.300,0.700,0.100,MECHANICAL_ACTIVITY,No,3.8200E-008,0.2,0.2,0.2,0.2,0.2,0.2,0.2,0.2,0.2,0.2,
 People Internal Gains Nominal, OFFICE_OPEN_2_PEOPLE,OFFICE_OPEN_OCCUPANCY,OFFICE_OPEN_2,95.24,4.0,4.0,4.200E-002,23.809,0.300,0.700,0.100,OFFICE_OPEN_ACTIVITY,No,3.8200E-008,0.0,4.0,0.0,4.0,0.0,0.4,0.0,0.0,0.0,0.0,
 People Internal Gains Nominal, OFFICE_PRIVATE_2_PEOPLE,OFFICE_OPEN_OCCUPANCY,OFFICE_PRIVATE_2,95.24,4.0,4.0,4.200E-002,23.809,0.300,0.700,0.100,OFFICE_OPEN_ACTIVITY,No,3.8200E-008,0.0,4.0,0.0,4.0,0.0,0.4,0.0,0.0,0.0,0.0,
 People Internal Gains Nominal, STORAGE_2_PEOPLE,STORAGE_OCCUPANCY,STORAGE_2,57.41,1.0,1.0,1.742E-002,57.409,0.300,0.700,0.100,STORAGE_ACTIVITY,No,3.8200E-008,0.2,0.2,0.2,0.2,0.2,0.2,0.2,0.2,0.2,0.2,
 People Internal Gains Nominal, OFFICE_OPEN_2_2_PEOPLE,OFFICE_OPEN_OCCUPANCY,OFFICE_OPEN_2_2,42.40,2.0,2.0,4.717E-002,21.200,0.300,0.700,0.100,OFFICE_OPEN_ACTIVITY,No,3.8200E-008,0.0,2.0,0.0,2.0,0.0,0.2,0.0,0.0,0.0,0.0,
 People Internal Gains Nominal, OFFICE_OPEN_2_3_PEOPLE,OFFICE_OPEN_OCCUPANCY,OFFICE_OPEN_2_3,95.24,4.0,4.0,4.200E-002,23.810,0.300,0.700,0.100,OFFICE_OPEN_ACTIVITY,No,3.8200E-008,0.0,4.0,0.0,4.0,0.0,0.4,0.0,0.0,0.0,0.0,
 People Internal Gains Nominal, OFFICE_OPEN_2_4_PEOPLE,OFFICE_OPEN_OCCUPANCY,OFFICE_OPEN_2_4,29.21,1.0,1.0,3.423E-002,29.215,0.300,0.700,0.100,OFFICE_OPEN_ACTIVITY,No,3.8200E-008,0.0,1.0,0.0,1.0,0.0,0.1,0.0,0.0,0.0,0.0,
 People Internal Gains Nominal, OFFICE_OPEN_2_5_PEOPLE,OFFICE_OPEN_OCCUPANCY,OFFICE_OPEN_2_5,56.17,2.0,2.0,3.561E-002,28.085,0.300,0.700,0.100,OFFICE_OPEN_ACTIVITY,No,3.8200E-008,0.0,2.0,0.0,2.0,0.0,0.2,0.0,0.0,0.0,0.0,
 People Internal Gains Nominal, OFFICE_OPEN_2_6_PEOPLE,OFFICE_OPEN_OCCUPANCY,OFFICE_OPEN_2_6,95.24,4.0,4.0,4.200E-002,23.809,0.300,0.700,0.100,OFFICE_OPEN_ACTIVITY,No,3.8200E-008,0.0,4.0,0.0,4.0,0.0,0.4,0.0,0.0,0.0,0.0,
 People Internal Gains Nominal, OFFICE_OPEN_2_7_PEOPLE,OFFICE_OPEN_OCCUPANCY,OFFICE_OPEN_2_7,90.39,4.0,4.0,4.425E-002,22.597,0.300,0.700,0.100,OFFICE_OPEN_ACTIVITY,No,3.8200E-008,0.0,4.0,0.0,4.0,0.0,0.4,0.0,0.0,0.0,0.0,
 People Internal Gains Nominal, LOBBY_3_PEOPLE,LOBBY_OCCUPANCY,LOBBY_3,182.56,9.0,9.0,4.930E-002,20.285,0.300,0.700,0.100,LOBBY_ACTIVITY,No,3.8200E-008,1.8,1.8,1.8,1.8,1.8,1.8,1.8,1.8,1.8,1.8,
 People Internal Gains Nominal, CONFERENCE_3_PEOPLE,CONFERENCE_OCCUPANCY,CONFERENCE_3,60.52,12.0,12.0,0.198,5.043,0.300,0.700,0.100,CONFERENCE_ACTIVITY,No,3.8200E-008,0.0,12.0,0.0,12.0,0.0,1.2,0.0,0.0,0.0,0.0,
 People Internal Gains Nominal, BREAK_ROOM_3_PEOPLE,BREAK_ROOM_OCCUPANCY,BREAK_ROOM_3,21.92,2.0,2.0,9.124E-002,10.960,0.300,0.700,0.100,BREAK_ROOM_ACTIVITY,No,3.8200E-008,0.4,0.4,0.4,0.4,0.4,0.4,0.4,0.4,0.4,0.4,
 People Internal Gains Nominal, MECHANICAL_3_PEOPLE,MECHANICAL_OCCUPANCY,MECHANICAL_3,92.14,1.0,1.0,1.085E-002,92.140,0.300,0.700,0.100,MECHANICAL_ACTIVITY,No,3.8200E-008,0.2,0.2,0.2,0.2,0.2,0.2,0.2,0.2,0.2,0.2,
 People Internal Gains Nominal, OFFICE_OPEN_3_PEOPLE,OFFICE_OPEN_OCCUPANCY,OFFICE_OPEN_3,95.24,4.0,4.0,4.200E-002,23.809,0.300,0.700,0.100,OFFICE_OPEN_ACTIVITY,No,3.8200E-008,0.0,4.0,0.0,4.0,0.0,0.4,0.0,0.0,0.0,0.0,
 People Internal Gains Nominal, OFFICE_PRIVATE_3_PEOPLE,OFFICE_OPEN_OCCUPANCY,OFFICE_PRIVATE_3,95.24,4.0,4.0,4.200E-002,23.809,0.300,0.700,0.100,OFFICE_OPEN_ACTIVITY,No,3.8200E-008,0.0,4.0,0.0,4.0,0.0,0.4,0.0,0.0,0.0,0.0,
 People Internal Gains Nominal, STORAGE_3_PEOPLE,STORAGE_OCCUPANCY,STORAGE_3,90.39,1.0,1.0,1.106E-002,90.387,0.300,0.700,0.100,STORAGE_ACTIVITY,No,3.8200E-008,0.2,0.2,0.2,0.2,0.2,0.2,0.2,0.2,0.2,0.2,
 People Internal Gains Nominal, OFFICE_OPEN_3_2_PEOPLE,OFFICE_OPEN_OCCUPANCY,OFFICE_OPEN_3_2,95.24,4.0,4.0,4.200E-002,23.809,0.300,0.700,0.100,OFFICE_OPEN_ACTIVITY,No,3.8200E-008,0.0,4.0,0.0,4.0,0.0,0.4,0.0,0.0,0.0,0.0,
 People Internal Gains Nominal, OFFICE_OPEN_3_3_PEOPLE,OFFICE_OPEN_OCCUPANCY,OFFICE_OPEN_3_3,95.24,4.0,4.0,4.200E-002,23.810,0.300,0.700,0.100,OFFICE_OPEN_ACTIVITY,No,3.8200E-008,0.0,4.0,0.0,4.0,0.0,0.4,0.0,0.0,0.0,0.0,
 People Internal Gains Nominal, OFFICE_OPEN_3_4_PEOPLE,OFFICE_OPEN_OCCUPANCY,OFFICE_OPEN_3_4,75.46,3.0,3.0,3.976E-002,25.154,0.300,0.700,0.100,OFFICE_OPEN_ACTIVITY,No,3.8200E-008,0.0,3.0,0.0,3.0,0.0,0.3,0.0,0.0,0.0,0.0,
 People Internal Gains Nominal, OFFICE_OPEN_3_5_PEOPLE,OFFICE_OPEN_OCCUPANCY,OFFICE_OPEN_3_5,95.24,4.0,4.0,4.200E-002,23.809,0.300,0.700,0.100,OFFICE_OPEN_ACTIVITY,No,3.8200E-008,0.0,4.0,0.0,4.0,0.0,0.4,0.0,0.0,0.0,0.0,
 People Internal Gains Nominal, OFFICE_OPEN_3_6_PEOPLE,OFFICE_OPEN_OCCUPANCY,OFFICE_OPEN_3_6,95.24,4.0,4.0,4.200E-002,23.809,0.300,0.700,0.100,OFFICE_OPEN_ACTIVITY,No,3.8200E-008,0.0,4.0,0.0,4.0,0.0,0.4,0.0,0.0,0.0,0.0,
 People Internal Gains Nominal, OFFICE_OPEN_3_7_PEOPLE,OFFICE_OPEN_OCCUPANCY,OFFICE_OPEN_3_7,90.39,4.0,4.0,4.425E-002,22.597,0.300,0.700,0.100,OFFICE_OPEN_ACTIVITY,No,3.8200E-008,0.0,4.0,0.0,4.0,0.0,0.4,0.0,0.0,0.0,0.0,
 People Internal Gains Nominal, LOBBY_4_PEOPLE,LOBBY_OCCUPANCY,LOBBY_4,90.48,4.0,4.0,4.421E-002,22.620,0.300,0.700,0.100,LOBBY_ACTIVITY,No,3.8200E-008,0.8,0.8,0.8,0.8,0.8,0.8,0.8,0.8,0.8,0.8,
 People Internal Gains Nominal, CONFERENCE_4_PEOPLE,CONFERENCE_OCCUPANCY,CONFERENCE_4,74.34,14.0,14.0,0.188,5.310,0.300,0.700,0.100,CONFERENCE_ACTIVITY,No,3.8200E-008,0.0,14.0,0.0,14.0,0.0,1.4,0.0,0.0,0.0,0.0,
 People Internal Gains Nominal, BREAK_ROOM_4_PEOPLE,BREAK_ROOM_OCCUPANCY,BREAK_ROOM_4,46.71,4.0,4.0,8.564E-002,11.677,0.300,0.700,0.100,BREAK_ROOM_ACTIVITY,No,3.8200E-008,0.8,0.8,0.8,0.8,0.8,0.8,0.8,0.8,0.8,0.8,
 People Internal Gains Nominal, MECHANICAL_4_PEOPLE,MECHANICAL_OCCUPANCY,MECHANICAL_4,58.51,1.0,1.0,1.709E-002,58.511,0.300,0.700,0.100,MECHANICAL_ACTIVITY,No,3.8200E-008,0.2,0.2,0.2,0.2,0.2,0.2,0.2,0.2,0.2,0.2,
 People Internal Gains Nominal, OFFICE_OPEN_4_PEOPLE,OFFICE_OPEN_OCCUPANCY,OFFICE_OPEN_4,41.61,2.0,2.0,4.806E-002,20.805,0.300,0.700,0.100,OFFICE_OPEN_ACTIVITY,No,3.8200E-008,0.0,2.0,0.0,2.0,0.0,0.2,0.0,0.0,0.0,0.0,
 People Internal Gains Nominal, OFFICE_PRIVATE_4_PEOPLE,OFFICE_OPEN_OCCUPANCY,OFFICE_PRIVATE_4,76.12,3.0,3.0,3.941E-002,25.372,0.300,0.700,0.100,OFFICE_OPEN_ACTIVITY,No,3.8200E-008,0.0,3.0,0.0,3.0,0.0,0.3,0.0,0.0,0.0,0.0,
 People Internal Gains Nominal, STORAGE_4_PEOPLE,STORAGE_OCCUPANCY,STORAGE_4,90.39,1.0,1.0,1.106E-002,90.387,0.300,0.700,0.100,STORAGE_ACTIVITY,No,3.8200E-008,0.2,0.2,0.2,0.2,0.2,0.2,0.2,0.2,0.2,0.2,
 People Internal Gains Nominal, OFFICE_OPEN_4_2_PEOPLE,OFFICE_OPEN_OCCUPANCY,OFFICE_OPEN_4_2,82.16,4.0,4.0,4.868E-002,20.541,0.300,0.700,0.100,OFFICE_OPEN_ACTIVITY,No,3.8200E-008,0.0,4.0,0.0,4.0,0.0,0.4,0.0,0.0,0.0,0.0,
 People Internal Gains Nominal, OFFICE_OPEN_4_3_PEOPLE,OFFICE_OPEN_OCCUPANCY,OFFICE_OPEN_4_3,90.58,4.0,4.0,4.416E-002,22.644,0.300,0.700,0.100,OFFICE_OPEN_ACTIVITY,No,3.8200E-008,0.0,4.0,0.0,4.0,0.0,0.4,0.0,0.0,0.0,0.0,
 People Internal Gains Nominal, OFFICE_OPEN_4_4_PEOPLE,OFFICE_OPEN_OCCUPANCY,OFFICE_OPEN_4_4,75.46,3.0,3.0,3.976E-002,25.154,0.300,0.700,0.100,OFFICE_OPEN_ACTIVITY,No,3.8200E-008,0.0,3.0,0.0,3.0,0.0,0.3,0.0,0.0,0.0,0.0,
 People Internal Gains Nominal, OFFICE_OPEN_4_5_PEOPLE,OFFICE_OPEN_OCCUPANCY,OFFICE_OPEN_4_5,95.24,4.0,4.0,4.200E-002,23.809,0.300,0.700,0.100,OFFICE_OPEN_ACTIVITY,No,3.8200E-008,0.0,4.0,0.0,4.0,0.0,0.4,0.0,0.0,0.0,0.0,
 People Internal Gains Nominal, OFFICE_OPEN_4_6_PEOPLE,OFFICE_OPEN_OCCUPANCY,OFFICE_OPEN_4_6,95.24,4.0,4.0,4.200E-002,23.809,0.300,0.700,0.100,OFFICE_OPEN_ACTIVITY,No,3.8200E-008,0.0,4.0,0.0,4.0,0.0,0.4,0.0,0.0,0.0,0.0,
 People Internal Gains Nominal, OFFICE_OPEN_4_7_PEOPLE,OFFICE_OPEN_OCCUPANCY,OFFICE_OPEN_4_7,90.39,4.0,4.0,4.425E-002,22.597,0.300,0.700,0.100,OFFICE_OPEN_ACTIVITY,No,3.8200E-008,0.0,4.0,0.0,4.0,0.0,0.4,0.0,0.0,0.0,0.0,
! <Lights Internal Gains Nominal>,Name,Schedule Name,Zone Name,Zone Floor Area {m2},# Zone Occupants,Lighting Level {W},Lights/Floor Area {W/m2},Lights per person {W/person},Fraction Return Air,Fraction Radiant,Fraction Short Wave,Fraction Convected,Fraction Replaceable,End-Use, Minimum Lighting Level for All Day Types {W},Maximum Lighting Level for All Day Types {W},Minimum Lighting Level for Weekdays {W}, Maximum Lighting Level for Weekdays {W},Minimum Lighting Level for Weekends/Holidays {W}, Maximum Lighting Level for Weekends /Holidays {W},Minimum Lighting Level for Summer Design Days {W}, Maximum Lighting Level for Summer Design Days {W},Minimum Lighting Level for Winter Design Days {W}, Maximum Lighting Level for Winter Design Days {W}
 Lights Internal Gains Nominal, LOBBY_0_LIGHTS,LOBBY_LIGHTING,LOBBY_0,113.06,5.0,1458.459,12.900,291.692,0.000,0.300,0.200,0.500,1.000,General,0.000,1458.459,145.846,1458.5,0.000,291.692,0.000,0.000,0.000,0.000
 Lights Internal Gains Nominal, CONFERENCE_0_LIGHTS,CONFERENCE_LIGHTING,CONFERENCE_0,51.74,10.0,558.757,10.800,55.876,0.000,0.300,0.200,0.500,1.000,General,0.000,558.757,55.876,558.8,0.000,111.751,0.000,0.000,0.000,0.000
 Lights Internal Gains Nominal, BREAK_ROOM_0_LIGHTS,BREAK_ROOM_LIGHTING,BREAK_ROOM_0,22.42,2.0,181.597,8.100,90.799,0.000,0.300,0.200,0.500,1.000,General,0.000,181.597,18.160,181.6,0.000,36.319,0.000,0.000,0.000,0.000
 Lights Internal Gains Nominal, MECHANICAL_0_LIGHTS,MECHANICAL_LIGHTING,MECHANICAL_0,75.95,1.0,410.111,5.400,410.111,0.000,0.300,0.200,0.500,1.000,General,0.000,410.111,41.011,410.1,0.000,82.022,0.000,0.000,0.000,0.000
 Lights Internal Gains Nominal, OFFICE_OPEN_0_LIGHTS,OFFICE_OPEN_LIGHTING,OFFICE_OPEN_0,95.24,4.0,1028.557,10.800,257.139,0.000,0.300,0.200,0.500,1.000,General,0.000,1028.557,102.856,1028.6,0.000,205.711,0.000,0.000,0.000,0.000
 Lights Internal Gains Nominal, OFFICE_PRIVATE_0_LIGHTS,OFFICE_OPEN_LIGHTING,OFFICE_PRIVATE_0,48.57,2.0,524.519,10.800,262.260,0.000,0.300,0.200,0.500,1.000,General,0.000,524.519,52.452,524.5,0.000,104.904,0.000,0.000,0.000,0.000
 Lights Internal Gains Nominal, STORAGE_0_LIGHTS,STORAGE_LIGHTING,STORAGE_0,86.59,1.0,467.609,5.400,467.609,0.000,0.300,0.200,0.500,1.000,General,0.000,467.609,46.761,467.6,0.000,93.522,0.000,0.000,0.000,0.000
 Lights Internal Gains Nominal, OFFICE_OPEN_0_2_LIGHTS,OFFICE_OPEN_LIGHTING,OFFICE_OPEN_0_2,95.24,4.0,1028.568,10.800,257.142,0.000,0.300,0.200,0.500,1.000,General,0.000,1028.568,102.857,1028.6,0.000,205.714,0.000,0.000,0.000,0.000
 Lights Internal Gains Nominal, OFFICE_OPEN_0_3_LIGHTS,OFFICE_OPEN_LIGHTING,OFFICE_OPEN_0_3,94.06,4.0,1015.870,10.800,253.967,0.000,0.300,0.200,0.500,1.000,General,0.000,1015.870,101.587,1015.9,0.000,203.174,0.000,0.000,0.000,0.000
 Lights Internal Gains Nominal, OFFICE_OPEN_0_4_LIGHTS,OFFICE_OPEN_LIGHTING,OFFICE_OPEN_0_4,24.10,1.0,260.285,10.800,260.285,0.000,0.300,0.200,0.500,1.000,General,0.000,260.285,26.028,260.3,0.000,52.057,0.000,0.000,0.000,0.000
 Lights Internal Gains Nominal, OFFICE_OPEN_0_5_LIGHTS,OFFICE_OPEN_LIGHTING,OFFICE_OPEN_0_5,95.24,4.0,1028.557,10.800,257.139,0.000,0.300,0.200,0.500,1.000,General,0.000,1028.557,102.856,1028.6,0.000,205.711,0.000,0.000,0.000,0.000
 Lights Internal Gains Nominal, OFFICE_OPEN_0_6_LIGHTS,OFFICE_OPEN_LIGHTING,OFFICE_OPEN_0_6,95.24,4.0,1028.568,10.800,257.142,0.000,0.300,0.200,0.500,1.000,General,0.000,1028.568,102.857,1028.6,0.000,205.714,0.000,0.000,0.000,0.000
 Lights Internal Gains Nominal, LOBBY_1_LIGHTS,LOBBY_LIGHTING,LOBBY_1,61.46,3.0,792.871,12.900,264.290,0.000,0.300,0.200,0.500,1.000,General,0.000,792.871,79.287,792.9,0.000,158.574,0.000,0.000,0.000,0.000
 Lights Internal Gains Nominal, CONFERENCE_1_LIGHTS,CONFERENCE_LIGHTING,CONFERENCE_1,54.74,10.0,591.180,10.800,59.118,0.000,0.300,0.200,0.500,1.000,General,0.000,591.180,59.118,591.2,0.000,118.236,0.000,0.000,0.000,0.000
 Lights Internal Gains Nominal, BREAK_ROOM_1_LIGHTS,BREAK_ROOM_LIGHTING,BREAK_ROOM_1,47.49,4.0,384.666,8.100,96.167,0.000,0.300,0.200,0.500,1.000,General,0.000,384.666,38.467,384.7,0.000,76.933,0.000,0.000,0.000,0.000
 Lights Internal Gains Nominal, MECHANICAL_1_LIGHTS,MECHANICAL_LIGHTING,MECHANICAL_1,46.67,1.0,252.033,5.400,252.033,0.000,0.300,0.200,0.500,1.000,General,0.000,252.033,25.203,252.0,0.000,50.407,0.000,0.000,0.000,0.000
 Lights Internal Gains Nominal, OFFICE_OPEN_1_LIGHTS,OFFICE_OPEN_LIGHTING,OFFICE_OPEN_1,95.24,4.0,1028.557,10.800,257.139,0.000,0.300,0.200,0.500,1.000,General,0.000,1028.557,102.856,1028.6,0.000,205.711,0.000,0.000,0.000,0.000
 Lights Internal Gains Nominal, OFFICE_PRIVATE_1_LIGHTS,OFFICE_OPEN_LIGHTING,OFFICE_PRIVATE_1,95.24,4.0,1028.568,10.800,257.142,0.000,0.300,0.200,0.500,1.000,General,0.000,1028.568,102.857,1028.6,0.000,205.714,0.000,0.000,0.000,0.000
 Lights Internal Gains Nominal, STORAGE_1_LIGHTS,STORAGE_LIGHTING,STORAGE_1,90.39,1.0,488.092,5.400,488.092,0.000,0.300,0.200,0.500,1.000,General,0.000,488.092,48.809,488.1,0.000,97.618,0.000,0.000,0.000,0.000
 Lights Internal Gains Nominal, OFFICE_OPEN_1_2_LIGHTS,OFFICE_OPEN_LIGHTING,OFFICE_OPEN_1_2,95.24,4.0,1028.568,10.800,257.142,0.000,0.300,0.200,0.500,1.000,General,0.000,1028.568,102.857,1028.6,0.000,205.714,0.000,0.000,0.000,0.000
 Lights Internal Gains Nominal, OFFICE_OPEN_1_3_LIGHTS,OFFICE_OPEN_LIGHTING,OFFICE_OPEN_1_3,48.23,2.0,520.908,10.800,260.454,0.000,0.300,0.200,0.500,1.000,General,0.000,520.908,52.091,520.9,0.000,104.182,0.000,0.000,0.000,0.000
 Lights Internal Gains Nominal, OFFICE_OPEN_1_4_LIGHTS,OFFICE_OPEN_LIGHTING,OFFICE_OPEN_1_4,56.05,2.0,605.296,10.800,302.648,0.000,0.300,0.200,0.500,1.000,General,0.000,605.296,60.530,605.3,0.000,121.059,0.000,0.000,0.000,0.000
 Lights Internal Gains Nominal, OFFICE_OPEN_1_5_LIGHTS,OFFICE_OPEN_LIGHTING,OFFICE_OPEN_1_5,95.24,4.0,1028.557,10.800,257.139,0.000,0.300,0.200,0.500,1.000,General,0.000,1028.557,102.856,1028.6,0.000,205.711,0.000,0.000,0.000,0.000
 Lights Internal Gains Nominal, OFFICE_OPEN_1_6_LIGHTS,OFFICE_OPEN_LIGHTING,OFFICE_OPEN_1_6,87.51,4.0,945.058,10.800,236.265,0.000,0.300,0.200,0.500,1.000,General,0.000,945.058,94.506,945.1,0.000,189.012,0.000,0.000,0.000,0.000
 Lights Internal Gains Nominal, OFFICE_OPEN_1_7_LIGHTS,OFFICE_OPEN_LIGHTING,OFFICE_OPEN_1_7,63.13,3.0,681.803,10.800,227.268,0.000,0.300,0.200,0.500,1.000,General,0.000,681.803,68.180,681.8,0.000,136.361,0.000,0.000,0.000,0.000
 Lights Internal Gains Nominal, LOBBY_2_LIGHTS,LOBBY_LIGHTING,LOBBY_2,53.37,2.0,688.501,12.900,344.250,0.000,0.300,0.200,0.500,1.000,General,0.000,688.501,68.850,688.5,0.000,137.700,0.000,0.000,0.000,0.000
 Lights Internal Gains Nominal, CONFERENCE_2_LIGHTS,CONFERENCE_LIGHTING,CONFERENCE_2,39.99,7.0,431.919,10.800,61.703,0.000,0.300,0.200,0.500,1.000,General,0.000,431.919,43.192,431.9,0.000,86.384,0.000,0.000,0.000,0.000
 Lights Internal Gains Nominal, BREAK_ROOM_2_LIGHTS,BREAK_ROOM_LIGHTING,BREAK_ROOM_2,75.58,7.0,612.200,8.100,87.457,0.000,0.300,0.200,0.500,1.000,General,0.000,612.200,61.220,612.2,0.000,122.440,0.000,0.000,0.000,0.000
 Lights Internal Gains Nominal, MECHANICAL_2_LIGHTS,MECHANICAL_LIGHTING,MECHANICAL_2,56.15,1.0,303.192,5.400,303.192,0.000,0.300,0.200,0.500,1.000,General,0.000,303.192,30.319,303.2,0.000,60.638,0.000,0.000,0.000,0.000
 Lights Internal Gains Nominal, OFFICE_OPEN_2_LIGHTS,OFFICE_OPEN_LIGHTING,OFFICE_OPEN_2,95.24,4.0,1028.557,10.800,257.139,0.000,0.300,0.200,0.500,1.000,General,0.000,1028.557,102.856,1028.6,0.000,205.711,0.000,0.000,0.000,0.000
 Lights Internal Gains Nominal, OFFICE_PRIVATE_2_LIGHTS,OFFICE_OPEN_LIGHTING,OFFICE_PRIVATE_2,95.24,4.0,1028.568,10.800,257.142,0.000,0.300,0.200,0.500,1.000,General,0.000,1028.568,102.857,1028.6,0.000,205.714,0.000,0.000,0.000,0.000
 Lights Internal Gains Nominal, STORAGE_2_LIGHTS,STORAGE_LIGHTING,STORAGE_2,57.41,1.0,310.011,5.400,310.011,0.000,0.300,0.200,0.500,1.000,General,0.000,310.011,31.001,310.0,0.000,62.002,0.000,0.000,0.000,0.000
 Lights Internal Gains Nominal, OFFICE_OPEN_2_2_LIGHTS,OFFICE_OPEN_LIGHTING,OFFICE_OPEN_2_2,42.40,2.0,457.914,10.800,228.957,0.000,0.300,0.200,0.500,1.000,General,0.000,457.914,45.791,457.9,0.000,91.583,0.000,0.000,0.000,0.000
 Lights Internal Gains Nominal, OFFICE_OPEN_2_3_LIGHTS,OFFICE_OPEN_LIGHTING,OFFICE_OPEN_2_3,95.24,4.0,1028.578,10.800,257.145,0.000,0.300,0.200,0.500,1.000,General,0.000,1028.578,102.858,1028.6,0.000,205.716,0.000,0.000,0.000,0.000
 Lights Internal Gains Nominal, OFFICE_OPEN_2_4_LIGHTS,OFFICE_OPEN_LIGHTING,OFFICE_OPEN_2_4,29.21,1.0,315.521,10.800,315.521,0.000,0.300,0.200,0.500,1.000,General,0.000,315.521,31.552,315.5,0.000,63.104,0.000,0.000,0.000,0.000
 Lights Internal Gains Nominal, OFFICE_OPEN_2_5_LIGHTS,OFFICE_OPEN_LIGHTING,OFFICE_OPEN_2_5,56.17,2.0,606.637,10.800,303.319,0.000,0.300,0.200,0.500,1.000,General,0.000,606.637,60.664,606.6,0.000,121.327,0.000,0.000,0.000,0.000
 Lights Internal Gains Nominal, OFFICE_OPEN_2_6_LIGHTS,OFFICE_OPEN_LIGHTING,OFFICE_OPEN_2_6,95.24,4.0,1028.568,10.800,257.142,0.000,0.300,0.200,0.500,1.000,General,0.000,1028.568,102.857,1028.6,0.000,205.714,0.000,0.000,0.000,0.000
 Lights Internal Gains Nominal, OFFICE_OPEN_2_7_LIGHTS,OFFICE_OPEN_LIGHTING,OFFICE_OPEN_2_7,90.39,4.0,976.185,10.800,244.046,0.000,0.300,0.200,0.500,1.000,General,0.000,976.185,97.618,976.2,0.000,195.237,0.000,0.000,0.000,0.000
 Lights Internal Gains Nominal, LOBBY_3_LIGHTS,LOBBY_LIGHTING,LOBBY_3,182.56,9.0,2355.040,12.900,261.671,0.000,0.300,0.200,0.500,1.000,General,0.000,2355.040,235.504,2355.0,0.000,471.008,0.000,0.000,0.000,0.000
 Lights Internal Gains Nominal, CONFERENCE_3_LIGHTS,CONFERENCE_LIGHTING,CONFERENCE_3,60.52,12.0,653.634,10.800,54.469,0.000,0.300,0.200,0.500,1.000,General,0.000,653.634,65.363,653.6,0.000,130.727,0.000,0.000,0.000,0.000
 Lights Internal Gains Nominal, BREAK_ROOM_3_LIGHTS,BREAK_ROOM_LIGHTING,BREAK_ROOM_3,21.92,2.0,177.551,8.100,88.775,0.000,0.300,0.200,0.500,1.000,General,0.000,177.551,17.755,177.6,0.000,35.510,0.000,0.000,0.000,0.000
 Lights Internal Gains Nominal, MECHANICAL_3_LIGHTS,MECHANICAL_LIGHTING,MECHANICAL_3,92.14,1.0,497.557,5.400,497.557,0.000,0.300,0.200,0.500,1.000,General,0.000,497.557,49.756,497.6,0.000,99.511,0.000,0.000,0.000,0.000
 Lights Internal Gains Nominal, OFFICE_OPEN_3_LIGHTS,OFFICE_OPEN_LIGHTING,OFFICE_OPEN_3,95.24,4.0,1028.557,10.800,257.139,0.000,0.300,0.200,0.500,1.000,General,0.000,1028.557,102.856,1028.6,0.000,205.711,0.000,0.000,0.000,0.000
 Lights Internal Gains Nominal, OFFICE_PRIVATE_3_LIGHTS,OFFICE_OPEN_LIGHTING,OFFICE_PRIVATE_3,95.24,4.0,1028.568,10.800,257.142,0.000,0.300,0.200,0.500,1.000,General,0.000,1028.568,102.857,1028.6,0.000,205.714,0.000,0.000,0.000,0.000
 Lights Internal Gains Nominal, STORAGE_3_LIGHTS,STORAGE_LIGHTING,STORAGE_3,90.39,1.0,488.092,5.400,488.092,0.000,0.300,0.200,0.500,1.000,General,0.000,488.092,48.809,488.1,0.000,97.618,0.000,0.000,0.000,0.000
 Lights Internal Gains Nominal, OFFICE_OPEN_3_2_LIGHTS,OFFICE_OPEN_LIGHTING,OFFICE_OPEN_3_2,95.24,4.0,1028.568,10.800,257.142,0.000,0.300,0.200,0.500,1.000,General,0.000,1028.568,102.857,1028.6,0.000,205.714,0.000,0.000,0.000,0.000
 Lights Internal Gains Nominal, OFFICE_OPEN_3_3_LIGHTS,OFFICE_OPEN_LIGHTING,OFFICE_OPEN_3_3,95.24,4.0,1028.578,10.800,257.145,0.000,0.300,0.200,0.500,1.000,General,0.000,1028.578,102.858,1028.6,0.000,205.716,0.000,0.000,0.000,0.000
 Lights Internal Gains Nominal, OFFICE_OPEN_3_4_LIGHTS,OFFICE_OPEN_LIGHTING,OFFICE_OPEN_3_4,75.46,3.0,814.981,10.800,271.660,0.000,0.300,0.200,0.500,1.000,General,0.000,814.981,81.498,815.0,0.000,162.996,0.000,0.000,0.000,0.000
 Lights Internal Gains Nominal, OFFICE_OPEN_3_5_LIGHTS,OFFICE_OPEN_LIGHTING,OFFICE_OPEN_3_5,95.24,4.0,1028.557,10.800,257.139,0.000,0.300,0.200,0.500,1.000,General,0.000,1028.557,102.856,1028.6,0.000,205.711,0.000,0.000,0.000,0.000
 Lights Internal Gains Nominal, OFFICE_OPEN_3_6_LIGHTS,OFFICE_OPEN_LIGHTING,OFFICE_OPEN_3_6,95.24,4.0,1028.568,10.800,257.142,0.000,0.300,0.200,0.500,1.000,General,0.000,1028.568,102.857,1028.6,0.000,205.714,0.000,0.000,0.000,0.000
 Lights Internal Gains Nominal, OFFICE_OPEN_3_7_LIGHTS,OFFICE_OPEN_LIGHTING,OFFICE_OPEN_3_7,90.39,4.0,976.185,10.800,244.046,0.000,0.300,0.200,0.500,1.000,General,0.000,976.185,97.618,976.2,0.000,195.237,0.000,0.000,0.000,0.000
 Lights Internal Gains Nominal, LOBBY_4_LIGHTS,LOBBY_LIGHTING,LOBBY_4,90.48,4.0,1167.208,12.900,291.802,0.000,0.300,0.200,0.500,1.000,General,0.000,1167.208,116.721,1167.2,0.000,233.442,0.000,0.000,0.000,0.000
 Lights Internal Gains Nominal, CONFERENCE_4_LIGHTS,CONFERENCE_LIGHTING,CONFERENCE_4,74.34,14.0,802.858,10.800,57.347,0.000,0.300,0.200,0.500,1.000,General,0.000,802.858,80.286,802.9,0.000,160.572,0.000,0.000,0.000,0.000
 Lights Internal Gains Nominal, BREAK_ROOM_4_LIGHTS,BREAK_ROOM_LIGHTING,BREAK_ROOM_4,46.71,4.0,378.345,8.100,94.586,0.000,0.300,0.200,0.500,1.000,General,0.000,378.345,37.834,378.3,0.000,75.669,0.000,0.000,0.000,0.000
 Lights Internal Gains Nominal, MECHANICAL_4_LIGHTS,MECHANICAL_LIGHTING,MECHANICAL_4,58.51,1.0,315.962,5.400,315.962,0.000,0.300,0.200,0.500,1.000,General,0.000,315.962,31.596,316.0,0.000,63.192,0.000,0.000,0.000,0.000
 Lights Internal Gains Nominal, OFFICE_OPEN_4_LIGHTS,OFFICE_OPEN_LIGHTING,OFFICE_OPEN_4,41.61,2.0,449.393,10.800,224.696,0.000,0.300,0.200,0.500,1.000,General,0.000,449.393,44.939,449.4,0.000,89.879,0.000,0.000,0.000,0.000
 Lights Internal Gains Nominal, OFFICE_PRIVATE_4_LIGHTS,OFFICE_OPEN_LIGHTING,OFFICE_PRIVATE_4,76.12,3.0,822.062,10.800,274.021,0.000,0.300,0.200,0.500,1.000,General,0.000,822.062,82.206,822.1,0.000,164.412,0.000,0.000,0.000,0.000
 Lights Internal Gains Nominal, STORAGE_4_LIGHTS,STORAGE_LIGHTING,STORAGE_4,90.39,1.0,488.092,5.400,488.092,0.000,0.300,0.200,0.500,1.000,General,0.000,488.092,48.809,488.1,0.000,97.618,0.000,0.000,0.000,0.000
 Lights Internal Gains Nominal, OFFICE_OPEN_4_2_LIGHTS,OFFICE_OPEN_LIGHTING,OFFICE_OPEN_4_2,82.16,4.0,887.382,10.800,221.845,0.000,0.300,0.200,0.500,1.000,General,0.000,887.382,88.738,887.4,0.000,177.476,0.000,0.000,0.000,0.000
 Lights Internal Gains Nominal, OFFICE_OPEN_4_3_LIGHTS,OFFICE_OPEN_LIGHTING,OFFICE_OPEN_4_3,90.58,4.0,978.237,10.800,244.559,0.000,0.300,0.200,0.500,1.000,General,0.000,978.237,97.824,978.2,0.000,195.647,0.000,0.000,0.000,0.000
 Lights Internal Gains Nominal, OFFICE_OPEN_4_4_LIGHTS,OFFICE_OPEN_LIGHTING,OFFICE_OPEN_4_4,75.46,3.0,814.981,10.800,271.660,0.000,0.300,0.200,0.500,1.000,General,0.000,814.981,81.498,815.0,0.000,162.996,0.000,0.000,0.000,0.000
 Lights Internal Gains Nominal, OFFICE_OPEN_4_5_LIGHTS,OFFICE_OPEN_LIGHTING,OFFICE_OPEN_4_5,95.24,4.0,1028.557,10.800,257.139,0.000,0.300,0.200,0.500,1.000,General,0.000,1028.557,102.856,1028.6,0.000,205.711,0.000,0.000,0.000,0.000
 Lights Internal Gains Nominal, OFFICE_OPEN_4_6_LIGHTS,OFFICE_OPEN_LIGHTING,OFFICE_OPEN_4_6,95.24,4.0,1028.568,10.800,257.142,0.000,0.300,0.200,0.500,1.000,General,0.000,1028.568,102.857,1028.6,0.000,205.714,0.000,0.000,0.000,0.000
 Lights Internal Gains Nominal, OFFICE_OPEN_4_7_LIGHTS,OFFICE_OPEN_LIGHTING,OFFICE_OPEN_4_7,90.39,4.0,976.185,10.800,244.046,0.000,0.300,0.200,0.500,1.000,General,0.000,976.185,97.618,976.2,0.000,195.237,0.000,0.000,0.000,0.000
! <ElectricEquipment Internal Gains Nominal>,Name,Schedule Name,Zone Name,Zone Floor Area {m2},# Zone Occupants,Equipment Level {W},Equipment/Floor Area {W/m2},Equipment per person {W/person},Fraction Latent,Fraction Radiant,Fraction Lost,Fraction Convected,End-Use SubCategory,Minimum Equipment Level for All Day Types {W},Maximum Equipment Level for All Day Types {W},Minimum Equipment Level for Weekdays {W}, Maximum Equipment Level for Weekdays {W},Minimum Equipment Level for Weekends/Holidays {W}, Maximum Equipment Level for Weekends /Holidays {W},Minimum Equipment Level for Summer Design Days {W}, Maximum Equipment Level for Summer Design Days {W},Minimum Equipment Level for Winter Design Days {W}, Maximum Equipment Level for Winter Design Days {W}
 ElectricEquipment Internal Gains Nominal, LOBBY_0_EQUIPMENT,LOBBY_EQUIPMENT,LOBBY_0,113.06,5.0,361.788,3.200,72.358,0.100,0.200,0.000,0.700,General,0.000,289.431,108.536,289.431,0.000,108.536,0.000,0.000,0.000,0.000
 ElectricEquipment Internal Gains Nominal, CONFERENCE_0_EQUIPMENT,CONFERENCE_EQUIPMENT,CONFERENCE_0,51.74,10.0,419.067,8.100,41.907,0.100,0.200,0.000,0.700,General,0.000,335.254,125.720,335.254,0.000,125.720,0.000,0.000,0.000,0.000
 ElectricEquipment Internal Gains Nominal, BREAK_ROOM_0_EQUIPMENT,BREAK_ROOM_EQUIPMENT,BREAK_ROOM_0,22.42,2.0,336.291,15.000,168.145,0.100,0.200,0.000,0.700,General,0.000,269.033,100.887,269.033,0.000,100.887,0.000,0.000,0.000,0.000
 ElectricEquipment Internal Gains Nominal, MECHANICAL_0_EQUIPMENT,MECHANICAL_EQUIPMENT,MECHANICAL_0,75.95,1.0,0.000,0.000,0.000,0.100,0.200,0.000,0.700,General,0.000,0.000,0.000,0.000,0.000,0.000,0.000,0.000,0.000,0.000
 ElectricEquipment Internal Gains Nominal, OFFICE_OPEN_0_EQUIPMENT,OFFICE_OPEN_EQUIPMENT,OFFICE_OPEN_0,95.24,4.0,771.418,8.100,192.855,0.100,0.200,0.000,0.700,General,0.000,617.134,231.425,617.134,0.000,231.425,0.000,0.000,0.000,0.000
 ElectricEquipment Internal Gains Nominal, OFFICE_PRIVATE_0_EQUIPMENT,OFFICE_OPEN_EQUIPMENT,OFFICE_PRIVATE_0,48.57,2.0,393.389,8.100,196.695,0.100,0.200,0.000,0.700,General,0.000,314.712,118.017,314.712,0.000,118.017,0.000,0.000,0.000,0.000
 ElectricEquipment Internal Gains Nominal, STORAGE_0_EQUIPMENT,STORAGE_EQUIPMENT,STORAGE_0,86.59,1.0,95.254,1.100,95.254,0.100,0.200,0.000,0.700,General,0.000,76.203,28.576,76.203,0.000,28.576,0.000,0.000,0.000,0.000
 ElectricEquipment Internal Gains Nominal, OFFICE_OPEN_0_2_EQUIPMENT,OFFICE_OPEN_EQUIPMENT,OFFICE_OPEN_0_2,95.24,4.0,771.426,8.100,192.857,0.100,0.200,0.000,0.700,General,0.000,617.141,231.428,617.141,0.000,231.428,0.000,0.000,0.000,0.000
 ElectricEquipment Internal Gains Nominal, OFFICE_OPEN_0_3_EQUIPMENT,OFFICE_OPEN_EQUIPMENT,OFFICE_OPEN_0_3,94.06,4.0,761.902,8.100,190.476,0.100,0.200,0.000,0.700,General,0.000,609.522,228.571,609.522,0.000,228.571,0.000,0.000,0.000,0.000
 ElectricEquipment Internal Gains Nominal, OFFICE_OPEN_0_4_EQUIPMENT,OFFICE_OPEN_EQUIPMENT,OFFICE_OPEN_0_4,24.10,1.0,195.213,8.100,195.213,0.100,0.200,0.000,0.700,General,0.000,156.171,58.564,156.171,0.000,58.564,0.000,0.000,0.000,0.000
 ElectricEquipment Internal Gains Nominal, OFFICE_OPEN_0_5_EQUIPMENT,OFFICE_OPEN_EQUIPMENT,OFFICE_OPEN_0_5,95.24,4.0,771.418,8.100,192.855,0.100,0.200,0.000,0.700,General,0.000,617.134,231.425,617.134,0.000,231.425,0.000,0.000,0.000,0.000
 ElectricEquipment Internal Gains Nominal, OFFICE_OPEN_0_6_EQUIPMENT,OFFICE_OPEN_EQUIPMENT,OFFICE_OPEN_0_6,95.24,4.0,771.426,8.100,192.856,0.100,0.200,0.000,0.700,General,0.000,617.141,231.428,617.141,0.000,231.428,0.000,0.000,0.000,0.000
 ElectricEquipment Internal Gains Nominal, LOBBY_1_EQUIPMENT,LOBBY_EQUIPMENT,LOBBY_1,61.46,3.0,196.681,3.200,65.560,0.100,0.200,0.000,0.700,General,0.000,157.345,59.004,157.345,0.000,59.004,0.000,0.000,0.000,0.000
 ElectricEquipment Internal Gains Nominal, CONFERENCE_1_EQUIPMENT,CONFERENCE_EQUIPMENT,CONFERENCE_1,54.74,10.0,443.385,8.100,44.338,0.100,0.200,0.000,0.700,General,0.000,354.708,133.015,354.708,0.000,133.015,0.000,0.000,0.000,0.000
 ElectricEquipment Internal Gains Nominal, BREAK_ROOM_1_EQUIPMENT,BREAK_ROOM_EQUIPMENT,BREAK_ROOM_1,47.49,4.0,712.345,15.000,178.086,0.100,0.200,0.000,0.700,General,0.000,569.876,213.704,569.876,0.000,213.704,0.000,0.000,0.000,0.000
 ElectricEquipment Internal Gains Nominal, MECHANICAL_1_EQUIPMENT,MECHANICAL_EQUIPMENT,MECHANICAL_1,46.67,1.0,0.000,0.000,0.000,0.100,0.200,0.000,0.700,General,0.000,0.000,0.000,0.000,0.000,0.000,0.000,0.000,0.000,0.000
 ElectricEquipment Internal Gains Nominal, OFFICE_OPEN_1_EQUIPMENT,OFFICE_OPEN_EQUIPMENT,OFFICE_OPEN_1,95.24,4.0,771.418,8.100,192.855,0.100,0.200,0.000,0.700,General,0.000,617.134,231.425,617.134,0.000,231.425,0.000,0.000,0.000,0.000
 ElectricEquipment Internal Gains Nominal, OFFICE_PRIVATE_1_EQUIPMENT,OFFICE_OPEN_EQUIPMENT,OFFICE_PRIVATE_1,95.24,4.0,771.426,8.100,192.856,0.100,0.200,0.000,0.700,General,0.000,617.141,231.428,617.141,0.000,231.428,0.000,0.000,0.000,0.000
 ElectricEquipment Internal Gains Nominal, STORAGE_1_EQUIPMENT,STORAGE_EQUIPMENT,STORAGE_1,90.39,1.0,99.426,1.100,99.426,0.100,0.200,0.000,0.700,General,0.000,79.541,29.828,79.541,0.000,29.828,0.000,0.000,0.000,0.000
 ElectricEquipment Internal Gains Nominal, OFFICE_OPEN_1_2_EQUIPMENT,OFFICE_OPEN_EQUIPMENT,OFFICE_OPEN_1_2,95.24,4.0,771.426,8.100,192.857,0.100,0.200,0.000,0.700,General,0.000,617.141,231.428,617.141,0.000,231.428,0.000,0.000,0.000,0.000
 ElectricEquipment Internal Gains Nominal, OFFICE_OPEN_1_3_EQUIPMENT,OFFICE_OPEN_EQUIPMENT,OFFICE_OPEN_1_3,48.23,2.0,390.681,8.100,195.341,0.100,0.200,0.000,0.700,General,0.000,312.545,117.204,312.545,0.000,117.204,0.000,0.000,0.000,0.000
 ElectricEquipment Internal Gains Nominal, OFFICE_OPEN_1_4_EQUIPMENT,OFFICE_OPEN_EQUIPMENT,OFFICE_OPEN_1_4,56.05,2.0,453.972,8.100,226.986,0.100,0.200,0.000,0.700,General,0.000,363.178,136.192,363.178,0.000,136.192,0.000,0.000,0.000,0.000
 ElectricEquipment Internal Gains Nominal, OFFICE_OPEN_1_5_EQUIPMENT,OFFICE_OPEN_EQUIPMENT,OFFICE_OPEN_1_5,95.24,4.0,771.418,8.100,192.855,0.100,0.200,0.000,0.700,General,0.000,617.134,231.425,617.134,0.000,231.425,0.000,0.000,0.000,0.000
 ElectricEquipment Internal Gains Nominal, OFFICE_OPEN_1_6_EQUIPMENT,OFFICE_OPEN_EQUIPMENT,OFFICE_OPEN_1_6,87.51,4.0,708.794,8.100,177.198,0.100,0.200,0.000,0.700,General,0.000,567.035,212.638,567.035,0.000,212.638,0.000,0.000,0.000,0.000
 ElectricEquipment Internal Gains Nominal, OFFICE_OPEN_1_7_EQUIPMENT,OFFICE_OPEN_EQUIPMENT,OFFICE_OPEN_1_7,63.13,3.0,511.353,8.100,170.451,0.100,0.200,0.000,0.700,General,0.000,409.082,153.406,409.082,0.000,153.406,0.000,0.000,0.000,0.000
 ElectricEquipment Internal Gains Nominal, LOBBY_2_EQUIPMENT,LOBBY_EQUIPMENT,LOBBY_2,53.37,2.0,170.791,3.200,85.395,0.100,0.200,0.000,0.700,General,0.000,136.633,51.237,136.633,0.000,51.237,0.000,0.000,0.000,0.000
 ElectricEquipment Internal Gains Nominal, CONFERENCE_2_EQUIPMENT,CONFERENCE_EQUIPMENT,CONFERENCE_2,39.99,7.0,323.939,8.100,46.277,0.100,0.200,0.000,0.700,General,0.000,259.151,97.182,259.151,0.000,97.182,0.000,0.000,0.000,0.000
 ElectricEquipment Internal Gains Nominal, BREAK_ROOM_2_EQUIPMENT,BREAK_ROOM_EQUIPMENT,BREAK_ROOM_2,75.58,7.0,1133.703,15.000,161.958,0.100,0.200,0.000,0.700,General,0.000,906.963,340.111,906.963,0.000,340.111,0.000,0.000,0.000,0.000
 ElectricEquipment Internal Gains Nominal, MECHANICAL_2_EQUIPMENT,MECHANICAL_EQUIPMENT,MECHANICAL_2,56.15,1.0,0.000,0.000,0.000,0.100,0.200,0.000,0.700,General,0.000,0.000,0.000,0.000,0.000,0.000,0.000,0.000,0.000,0.000
 ElectricEquipment Internal Gains Nominal, OFFICE_OPEN_2_EQUIPMENT,OFFICE_OPEN_EQUIPMENT,OFFICE_OPEN_2,95.24,4.0,771.418,8.100,192.855,0.100,0.200,0.000,0.700,General,0.000,617.134,231.425,617.134,0.000,231.425,0.000,0.000,0.000,0.000
 ElectricEquipment Internal Gains Nominal, OFFICE_PRIVATE_2_EQUIPMENT,OFFICE_OPEN_EQUIPMENT,OFFICE_PRIVATE_2,95.24,4.0,771.426,8.100,192.856,0.100,0.200,0.000,0.700,General,0.000,617.141,231.428,617.141,0.000,231.428,0.000,0.000,0.000,0.000
 ElectricEquipment Internal Gains Nominal, STORAGE_2_EQUIPMENT,STORAGE_EQUIPMENT,STORAGE_2,57.41,1.0,63.150,1.100,63.150,0.100,0.200,0.000,0.700,General,0.000,50.520,18.945,50.520,0.000,18.945,0.000,0.000,0.000,0.000
 ElectricEquipment Internal Gains Nominal, OFFICE_OPEN_2_2_EQUIPMENT,OFFICE_OPEN_EQUIPMENT,OFFICE_OPEN_2_2,42.40,2.0,343.435,8.100,171.718,0.100,0.200,0.000,0.700,General,0.000,274.748,103.031,274.748,0.000,103.031,0.000,0.000,0.000,0.000
 ElectricEquipment Internal Gains Nominal, OFFICE_OPEN_2_3_EQUIPMENT,OFFICE_OPEN_EQUIPMENT,OFFICE_OPEN_2_3,95.24,4.0,771.434,8.100,192.858,0.100,0.200,0.000,0.700,General,0.000,617.147,231.430,617.147,0.000,231.430,0.000,0.000,0.000,0.000
 ElectricEquipment Internal Gains Nominal, OFFICE_OPEN_2_4_EQUIPMENT,OFFICE_OPEN_EQUIPMENT,OFFICE_OPEN_2_4,29.21,1.0,236.641,8.100,236.641,0.100,0.200,0.000,0.700,General,0.000,189.313,70.992,189.313,0.000,70.992,0.000,0.000,0.000,0.000
 ElectricEquipment Internal Gains Nominal, OFFICE_OPEN_2_5_EQUIPMENT,OFFICE_OPEN_EQUIPMENT,OFFICE_OPEN_2_5,56.17,2.0,454.978,8.100,227.489,0.100,0.200,0.000,0.700,General,0.000,363.982,136.493,363.982,0.000,136.493,0.000,0.000,0.000,0.000
 ElectricEquipment Internal Gains Nominal, OFFICE_OPEN_2_6_EQUIPMENT,OFFICE_OPEN_EQUIPMENT,OFFICE_OPEN_2_6,95.24,4.0,771.426,8.100,192.856,0.100,0.200,0.000,0.700,General,0.000,617.141,231.428,617.141,0.000,231.428,0.000,0.000,0.000,0.000
 ElectricEquipment Internal Gains Nominal, OFFICE_OPEN_2_7_EQUIPMENT,OFFICE_OPEN_EQUIPMENT,OFFICE_OPEN_2_7,90.39,4.0,732.138,8.100,183.035,0.100,0.200,0.000,0.700,General,0.000,585.711,219.642,585.711,0.000,219.642,0.000,0.000,0.000,0.000
 ElectricEquipment Internal Gains Nominal, LOBBY_3_EQUIPMENT,LOBBY_EQUIPMENT,LOBBY_3,182.56,9.0,584.196,3.200,64.911,0.100,0.200,0.000,0.700,General,0.000,467.357,175.259,467.357,0.000,175.259,0.000,0.000,0.000,0.000
 ElectricEquipment Internal Gains Nominal, CONFERENCE_3_EQUIPMENT,CONFERENCE_EQUIPMENT,CONFERENCE_3,60.52,12.0,490.225,8.100,40.852,0.100,0.200,0.000,0.700,General,0.000,392.180,147.068,392.180,0.000,147.068,0.000,0.000,0.000,0.000
 ElectricEquipment Internal Gains Nominal, BREAK_ROOM_3_EQUIPMENT,BREAK_ROOM_EQUIPMENT,BREAK_ROOM_3,21.92,2.0,328.798,15.000,164.399,0.100,0.200,0.000,0.700,General,0.000,263.038,98.639,263.038,0.000,98.639,0.000,0.000,0.000,0.000
 ElectricEquipment Internal Gains Nominal, MECHANICAL_3_EQUIPMENT,MECHANICAL_EQUIPMENT,MECHANICAL_3,92.14,1.0,0.000,0.000,0.000,0.100,0.200,0.000,0.700,General,0.000,0.000,0.000,0.000,0.000,0.000,0.000,0.000,0.000,0.000
 ElectricEquipment Internal Gains Nominal, OFFICE_OPEN_3_EQUIPMENT,OFFICE_OPEN_EQUIPMENT,OFFICE_OPEN_3,95.24,4.0,771.418,8.100,192.855,0.100,0.200,0.000,0.700,General,0.000,617.134,231.425,617.134,0.000,231.425,0.000,0.000,0.000,0.000
 ElectricEquipment Internal Gains Nominal, OFFICE_PRIVATE_3_EQUIPMENT,OFFICE_OPEN_EQUIPMENT,OFFICE_PRIVATE_3,95.24,4.0,771.426,8.100,192.856,0.100,0.200,0.000,0.700,General,0.000,617.141,231.428,617.141,0.000,231.428,0.000,0.000,0.000,0.000
 ElectricEquipment Internal Gains Nominal, STORAGE_3_EQUIPMENT,STORAGE_EQUIPMENT,STORAGE_3,90.39,1.0,99.426,1.100,99.426,0.100,0.200,0.000,0.700,General,0.000,79.541,29.828,79.541,0.000,29.828,0.000,0.000,0.000,0.000
 ElectricEquipment Internal Gains Nominal, OFFICE_OPEN_3_2_EQUIPMENT,OFFICE_OPEN_EQUIPMENT,OFFICE_OPEN_3_2,95.24,4.0,771.426,8.100,192.857,0.100,0.200,0.000,0.700,General,0.000,617.141,231.428,617.141,0.000,231.428,0.000,0.000,0.000,0.000
 ElectricEquipment Internal Gains Nominal, OFFICE_OPEN_3_3_EQUIPMENT,OFFICE_OPEN_EQUIPMENT,OFFICE_OPEN_3_3,95.24,4.0,771.434,8.100,192.858,0.100,0.200,0.000,0.700,General,0.000,617.147,231.430,617.147,0.000,231.430,0.000,0.000,0.000,0.000
 ElectricEquipment Internal Gains Nominal, OFFICE_OPEN_3_4_EQUIPMENT,OFFICE_OPEN_EQUIPMENT,OFFICE_OPEN_3_4,75.46,3.0,611.236,8.100,203.745,0.100,0.200,0.000,0.700,General,0.000,488.989,183.371,488.989,0.000,183.371,0.000,0.000,0.000,0.000
 ElectricEquipment Internal Gains Nominal, OFFICE_OPEN_3_5_EQUIPMENT,OFFICE_OPEN_EQUIPMENT,OFFICE_OPEN_3_5,95.24,4.0,771.418,8.100,192.855,0.100,0.200,0.000,0.700,General,0.000,617.134,231.425,617.134,0.000,231.425,0.000,0.000,0.000,0.000
 ElectricEquipment Internal Gains Nominal, OFFICE_OPEN_3_6_EQUIPMENT,OFFICE_OPEN_EQUIPMENT,OFFICE_OPEN_3_6,95.24,4.0,771.426,8.100,192.856,0.100,0.200,0.000,0.700,General,0.000,617.141,231.428,617.141,0.000,231.428,0.000,0.000,0.000,0.000
 ElectricEquipment Internal Gains Nominal, OFFICE_OPEN_3_7_EQUIPMENT,OFFICE_OPEN_EQUIPMENT,OFFICE_OPEN_3_7,90.39,4.0,732.138,8.100,183.035,0.100,0.200,0.000,0.700,General,0.000,585.711,219.642,585.711,0.000,219.642,0.000,0.000,0.000,0.000
 ElectricEquipment Internal Gains Nominal, LOBBY_4_EQUIPMENT,LOBBY_EQUIPMENT,LOBBY_4,90.48,4.0,289.540,3.200,72.385,0.100,0.200,0.000,0.700,General,0.000,231.632,86.862,231.632,0.000,86.862,0.000,0.000,0.000,0.000
 ElectricEquipment Internal Gains Nominal, CONFERENCE_4_EQUIPMENT,CONFERENCE_EQUIPMENT,CONFERENCE_4,74.34,14.0,602.143,8.100,43.010,0.100,0.200,0.000,0.700,General,0.000,481.715,180.643,481.715,0.000,180.643,0.000,0.000,0.000,0.000
 ElectricEquipment Internal Gains Nominal, BREAK_ROOM_4_EQUIPMENT,BREAK_ROOM_EQUIPMENT,BREAK_ROOM_4,46.71,4.0,700.638,15.000,175.160,0.100,0.200,0.000,0.700,General,0.000,560.511,210.191,560.511,0.000,210.191,0.000,0.000,0.000,0.000
 ElectricEquipment Internal Gains Nominal, MECHANICAL_4_EQUIPMENT,MECHANICAL_EQUIPMENT,MECHANICAL_4,58.51,1.0,0.000,0.000,0.000,0.100,0.200,0.000,0.700,General,0.000,0.000,0.000,0.000,0.000,0.000,0.000,0.000,0.000,0.000
 ElectricEquipment Internal Gains Nominal, OFFICE_OPEN_4_EQUIPMENT,OFFICE_OPEN_EQUIPMENT,OFFICE_OPEN_4,41.61,2.0,337.045,8.100,168.522,0.100,0.200,0.000,0.700,General,0.000,269.636,101.113,269.636,0.000,101.113,0.000,0.000,0.000,0.000
 ElectricEquipment Internal Gains Nominal, OFFICE_PRIVATE_4_EQUIPMENT,OFFICE_OPEN_EQUIPMENT,OFFICE_PRIVATE_4,76.12,3.0,616.547,8.100,205.516,0.100,0.200,0.000,0.700,General,0.000,493.237,184.964,493.237,0.000,184.964,0.000,0.000,0.000,0.000
 ElectricEquipment Internal Gains Nominal, STORAGE_4_EQUIPMENT,STORAGE_EQUIPMENT,STORAGE_4,90.39,1.0,99.426,1.100,99.426,0.100,0.200,0.000,0.700,General,0.000,79.541,29.828,79.541,0.000,29.828,0.000,0.000,0.000,0.000
 ElectricEquipment Internal Gains Nominal, OFFICE_OPEN_4_2_EQUIPMENT,OFFICE_OPEN_EQUIPMENT,OFFICE_OPEN_4_2,82.16,4.0,665.536,8.100,166.384,0.100,0.200,0.000,0.700,General,0.000,532.429,199.661,532.429,0.000,199.661,0.000,0.000,0.000,0.000
 ElectricEquipment Internal Gains Nominal, OFFICE_OPEN_4_3_EQUIPMENT,OFFICE_OPEN_EQUIPMENT,OFFICE_OPEN_4_3,90.58,4.0,733.678,8.100,183.419,0.100,0.200,0.000,0.700,General,0.000,586.942,220.103,586.942,0.000,220.103,0.000,0.000,0.000,0.000
 ElectricEquipment Internal Gains Nominal, OFFICE_OPEN_4_4_EQUIPMENT,OFFICE_OPEN_EQUIPMENT,OFFICE_OPEN_4_4,75.46,3.0,611.236,8.100,203.745,0.100,0.200,0.000,0.700,General,0.000,488.989,183.371,488.989,0.000,183.371,0.000,0.000,0.000,0.000
 ElectricEquipment Internal Gains Nominal, OFFICE_OPEN_4_5_EQUIPMENT,OFFICE_OPEN_EQUIPMENT,OFFICE_OPEN_4_5,95.24,4.0,771.418,8.100,192.855,0.100,0.200,0.000,0.700,General,0.000,617.134,231.425,617.134,0.000,231.425,0.000,0.000,0.000,0.000
 ElectricEquipment Internal Gains Nominal, OFFICE_OPEN_4_6_EQUIPMENT,OFFICE_OPEN_EQUIPMENT,OFFICE_OPEN_4_6,95.24,4.0,771.426,8.100,192.856,0.100,0.200,0.000,0.700,General,0.000,617.141,231.428,617.141,0.000,231.428,0.000,0.000,0.000,0.000
 ElectricEquipment Internal Gains Nominal, OFFICE_OPEN_4_7_EQUIPMENT,OFFICE_OPEN_EQUIPMENT,OFFICE_OPEN_4_7,90.39,4.0,732.138,8.100,183.035,0.100,0.200,0.000,0.700,General,0.000,585.711,219.642,585.711,0.000,219.642,0.000,0.000,0.000,0.000
! <Enclosure/Window Adjacency Daylighting Counts>, Enclosure Name, Number of Exterior Windows, Number of Exterior Windows in Adjacent Enclosures
Enclosure/Window Adjacency Daylighting Counts, LOBBY_0,5,0
Enclosure/Window Adjacency Daylighting Counts, CONFERENCE_0,4,0
Enclosure/Window Adjacency Daylighting Counts, BREAK_ROOM_0,4,0
Enclosure/Window Adjacency Daylighting Counts, OFFICE_OPEN_0,4,0
Enclosure/Window Adjacency Daylighting Counts, OFFICE_PRIVATE_0,5,0
Enclosure/Window Adjacency Daylighting Counts, OFFICE_OPEN_0_2,4,0
Enclosure/Window Adjacency Daylighting Counts, OFFICE_OPEN_0_3,5,0
Enclosure/Window Adjacency Daylighting Counts, OFFICE_OPEN_0_4,8,0
Enclosure/Window Adjacency Daylighting Counts, OFFICE_OPEN_0_5,4,0
Enclosure/Window Adjacency Daylighting Counts, OFFICE_OPEN_0_6,4,0
Enclosure/Window Adjacency Daylighting Counts, LOBBY_1,6,0
Enclosure/Window Adjacency Daylighting Counts, CONFERENCE_1,4,0
Enclosure/Window Adjacency Daylighting Counts, BREAK_ROOM_1,4,0
Enclosure/Window Adjacency Daylighting Counts, OFFICE_OPEN_1,4,0
Enclosure/Window Adjacency Daylighting Counts, OFFICE_PRIVATE_1,4,0
Enclosure/Window Adjacency Daylighting Counts, OFFICE_OPEN_1_2,4,0
Enclosure/Window Adjacency Daylighting Counts, OFFICE_OPEN_1_3,6,0
Enclosure/Window Adjacency Daylighting Counts, OFFICE_OPEN_1_4,6,0
Enclosure/Window Adjacency Daylighting Counts, OFFICE_OPEN_1_5,4,0
Enclosure/Window Adjacency Daylighting Counts, OFFICE_OPEN_1_6,4,0
Enclosure/Window Adjacency Daylighting Counts, OFFICE_OPEN_1_7,7,0
Enclosure/Window Adjacency Daylighting Counts, LOBBY_2,6,0
Enclosure/Window Adjacency Daylighting Counts, CONFERENCE_2,4,0
Enclosure/Window Adjacency Daylighting Counts, BREAK_ROOM_2,4,0
Enclosure/Window Adjacency Daylighting Counts, OFFICE_OPEN_2,4,0
Enclosure/Window Adjacency Daylighting Counts, OFFICE_PRIVATE_2,4,0
Enclosure/Window Adjacency Daylighting Counts, OFFICE_OPEN_2_2,8,0
Enclosure/Window Adjacency Daylighting Counts, OFFICE_OPEN_2_3,4,0
Enclosure/Window Adjacency Daylighting Counts, OFFICE_OPEN_2_4,5,0
Enclosure/Window Adjacency Daylighting Counts, OFFICE_OPEN_2_5,6,0
Enclosure/Window Adjacency Daylighting Counts, OFFICE_OPEN_2_6,4,0
Enclosure/Window Adjacency Daylighting Counts, OFFICE_OPEN_2_7,6,0
Enclosure/Window Adjacency Daylighting Counts, LOBBY_3,4,0
Enclosure/Window Adjacency Daylighting Counts, CONFERENCE_3,5,0
Enclosure/Window Adjacency Daylighting Counts, BREAK_ROOM_3,4,0
Enclosure/Window Adjacency Daylighting Counts, OFFICE_OPEN_3,4,0
Enclosure/Window Adjacency Daylighting Counts, OFFICE_PRIVATE_3,4,0
Enclosure/Window Adjacency Daylighting Counts, OFFICE_OPEN_3_2,4,0
Enclosure/Window Adjacency Daylighting Counts, OFFICE_OPEN_3_3,4,0
Enclosure/Window Adjacency Daylighting Counts, OFFICE_OPEN_3_4,4,0
Enclosure/Window Adjacency Daylighting Counts, OFFICE_OPEN_3_5,4,0
Enclosure/Window Adjacency Daylighting Counts, OFFICE_OPEN_3_6,4,0
Enclosure/Window Adjacency Daylighting Counts, OFFICE_OPEN_3_7,6,0
Enclosure/Window Adjacency Daylighting Counts, LOBBY_4,4,0
Enclosure/Window Adjacency Daylighting Counts, CONFERENCE_4,4,0
Enclosure/Window Adjacency Daylighting Counts, BREAK_ROOM_4,5,0
Enclosure/Window Adjacency Daylighting Counts, OFFICE_OPEN_4,5,0
Enclosure/Window Adjacency Daylighting Counts, OFFICE_PRIVATE_4,5,0
Enclosure/Window Adjacency Daylighting Counts, OFFICE_OPEN_4_2,6,0
Enclosure/Window Adjacency Daylighting Counts, OFFICE_OPEN_4_3,6,0
Enclosure/Window Adjacency Daylighting Counts, OFFICE_OPEN_4_4,4,0
Enclosure/Window Adjacency Daylighting Counts, OFFICE_OPEN_4_5,4,0
Enclosure/Window Adjacency Daylighting Counts, OFFICE_OPEN_4_6,4,0
Enclosure/Window Adjacency Daylighting Counts, OFFICE_OPEN_4_7,6,0
! <Enclosure/Window Adjacency Daylighting Matrix>, Enclosure Name, Number of Adjacent Enclosures with Windows,Adjacent Enclosure Names - 1st 100 (max)
Enclosure/Window Adjacency Daylighting Matrix, LOBBY_0,0
Enclosure/Window Adjacency Daylighting Matrix, CONFERENCE_0,0
Enclosure/Window Adjacency Daylighting Matrix, BREAK_ROOM_0,0
Enclosure/Window Adjacency Daylighting Matrix, OFFICE_OPEN_0,0
Enclosure/Window Adjacency Daylighting Matrix, OFFICE_PRIVATE_0,0
Enclosure/Window Adjacency Daylighting Matrix, OFFICE_OPEN_0_2,0
Enclosure/Window Adjacency Daylighting Matrix, OFFICE_OPEN_0_3,0
Enclosure/Window Adjacency Daylighting Matrix, OFFICE_OPEN_0_4,0
Enclosure/Window Adjacency Daylighting Matrix, OFFICE_OPEN_0_5,0
Enclosure/Window Adjacency Daylighting Matrix, OFFICE_OPEN_0_6,0
Enclosure/Window Adjacency Daylighting Matrix, LOBBY_1,0
Enclosure/Window Adjacency Daylighting Matrix, CONFERENCE_1,0
Enclosure/Window Adjacency Daylighting Matrix, BREAK_ROOM_1,0
Enclosure/Window Adjacency Daylighting Matrix, OFFICE_OPEN_1,0
Enclosure/Window Adjacency Daylighting Matrix, OFFICE_PRIVATE_1,0
Enclosure/Window Adjacency Daylighting Matrix, OFFICE_OPEN_1_2,0
Enclosure/Window Adjacency Daylighting Matrix, OFFICE_OPEN_1_3,0
Enclosure/Window Adjacency Daylighting Matrix, OFFICE_OPEN_1_4,0
Enclosure/Window Adjacency Daylighting Matrix, OFFICE_OPEN_1_5,0
Enclosure/Window Adjacency Daylighting Matrix, OFFICE_OPEN_1_6,0
Enclosure/Window Adjacency Daylighting Matrix, OFFICE_OPEN_1_7,0
Enclosure/Window Adjacency Daylighting Matrix, LOBBY_2,0
Enclosure/Window Adjacency Daylighting Matrix, CONFERENCE_2,0
Enclosure/Window Adjacency Daylighting Matrix, BREAK_ROOM_2,0
Enclosure/Window Adjacency Daylighting Matrix, OFFICE_OPEN_2,0
Enclosure/Window Adjacency Daylighting Matrix, OFFICE_PRIVATE_2,0
Enclosure/Window Adjacency Daylighting Matrix, OFFICE_OPEN_2_2,0
Enclosure/Window Adjacency Daylighting Matrix, OFFICE_OPEN_2_3,0
Enclosure/Window Adjacency Daylighting Matrix, OFFICE_OPEN_2_4,0
Enclosure/Window Adjacency Daylighting Matrix, OFFICE_OPEN_2_5,0
Enclosure/Window Adjacency Daylighting Matrix, OFFICE_OPEN_2_6,0
Enclosure/Window Adjacency Daylighting Matrix, OFFICE_OPEN_2_7,0
Enclosure/Window Adjacency Daylighting Matrix, LOBBY_3,0
Enclosure/Window Adjacency Daylighting Matrix, CONFERENCE_3,0
Enclosure/Window Adjacency Daylighting Matrix, BREAK_ROOM_3,0
Enclosure/Window Adjacency Daylighting Matrix, OFFICE_OPEN_3,0
Enclosure/Window Adjacency Daylighting Matrix, OFFICE_PRIVATE_3,0
Enclosure/Window Adjacency Daylighting Matrix, OFFICE_OPEN_3_2,0
Enclosure/Window Adjacency Daylighting Matrix, OFFICE_OPEN_3_3,0
Enclosure/Window Adjacency Daylighting Matrix, OFFICE_OPEN_3_4,0
Enclosure/Window Adjacency Daylighting Matrix, OFFICE_OPEN_3_5,0
Enclosure/Window Adjacency Daylighting Matrix, OFFICE_OPEN_3_6,0
Enclosure/Window Adjacency Daylighting Matrix, OFFICE_OPEN_3_7,0
Enclosure/Window Adjacency Daylighting Matrix, LOBBY_4,0
Enclosure/Window Adjacency Daylighting Matrix, CONFERENCE_4,0
Enclosure/Window Adjacency Daylighting Matrix, BREAK_ROOM_4,0
Enclosure/Window Adjacency Daylighting Matrix, OFFICE_OPEN_4,0
Enclosure/Window Adjacency Daylighting Matrix, OFFICE_PRIVATE_4,0
Enclosure/Window Adjacency Daylighting Matrix, OFFICE_OPEN_4_2,0
Enclosure/Window Adjacency Daylighting Matrix, OFFICE_OPEN_4_3,0
Enclosure/Window Adjacency Daylighting Matrix, OFFICE_OPEN_4_4,0
Enclosure/Window Adjacency Daylighting Matrix, OFFICE_OPEN_4_5,0
Enclosure/Window Adjacency Daylighting Matrix, OFFICE_OPEN_4_6,0
Enclosure/Window Adjacency Daylighting Matrix, OFFICE_OPEN_4_7,0
[...]
 Sky Daylight Factors,Clear Turbid Sky,01/01,OFFICE_OPEN_4_4_DAYLIGHT,OFFICE_OPEN_4_4,OFFICE_OPEN_4_4_WINDOW_4,OFFICE_OPEN_4_4_REFERENCEPOINT1,6.6030E-007
 Sky Daylight Factors,Intermediate Sky,01/01,OFFICE_OPEN_4_4_DAYLIGHT,OFFICE_OPEN_4_4,OFFICE_OPEN_4_4_WINDOW_4,OFFICE_OPEN_4_4_REFERENCEPOINT1,9.5485E-007
 Sky Daylight Factors,Overcast Sky,01/01,OFFICE_OPEN_4_4_DAYLIGHT,OFFICE_OPEN_4_4,OFFICE_OPEN_4_4_WINDOW_4,OFFICE_OPEN_4_4_REFERENCEPOINT1,1.4024E-006
 Sky Daylight Factors,Clear Sky,01/01,OFFICE_OPEN_4_5_DAYLIGHT,OFFICE_OPEN_4_5,OFFICE_OPEN_4_5_WINDOW_1,OFFICE_OPEN_4_5_REFERENCEPOINT1,1.4606E-006
 Sky Daylight Factors,Clear Turbid Sky,01/01,OFFICE_OPEN_4_5_DAYLIGHT,OFFICE_OPEN_4_5,OFFICE_OPEN_4_5_WINDOW_1,OFFICE_OPEN_4_5_REFERENCEPOINT1,1.2893E-006
 Sky Daylight Factors,Intermediate Sky,01/01,OFFICE_OPEN_4_5_DAYLIGHT,OFFICE_OPEN_4_5,OFFICE_OPEN_4_5_WINDOW_1,OFFICE_OPEN_4_5_REFERENCEPOINT1,2.3401E-006
 Sky Daylight Factors,Overcast Sky,01/01,OFFICE_OPEN_4_5_DAYLIGHT,OFFICE_OPEN_4_5,OFFICE_OPEN_4_5_WINDOW_1,OFFICE_OPEN_4_5_REFERENCEPOINT1,3.4453E-006
 Sky Daylight Factors,Clear Sky,01/01,OFFICE_OPEN_4_5_DAYLIGHT,OFFICE_OPEN_4_5,OFFICE_OPEN_4_5_WINDOW_2,OFFICE_OPEN_4_5_REFERENCEPOINT1,0.0000
 Sky Daylight Factors,Clear Turbid Sky,01/01,OFFICE_OPEN_4_5_DAYLIGHT,OFFICE_OPEN_4_5,OFFICE_OPEN_4_5_WINDOW_2,OFFICE_OPEN_4_5_REFERENCEPOINT1,0.0000
 Sky Daylight Factors,Intermediate Sky,01/01,OFFICE_OPEN_4_5_DAYLIGHT,OFFICE_OPEN_4_5,OFFICE_OPEN_4_5_WINDOW_2,OFFICE_OPEN_4_5_REFERENCEPOINT1,0.0000
 Sky Daylight Factors,Overcast Sky,01/01,OFFICE_OPEN_4_5_DAYLIGHT,OFFICE_OPEN_4_5,OFFICE_OPEN_4_5_WINDOW_2,OFFICE_OPEN_4_5_REFERENCEPOINT1,0.0000
 Sky Daylight Factors,Clear Sky,01/01,OFFICE_OPEN_4_5_DAYLIGHT,OFFICE_OPEN_4_5,OFFICE_OPEN_4_5_WINDOW_3,OFFICE_OPEN_4_5_REFERENCEPOINT1,0.0000
 Sky Daylight Factors,Clear Turbid Sky,01/01,OFFICE_OPEN_4_5_DAYLIGHT,OFFICE_OPEN_4_5,OFFICE_OPEN_4_5_WINDOW_3,OFFICE_OPEN_4_5_REFERENCEPOINT1,0.0000
 Sky Daylight Factors,Intermediate Sky,01/01,OFFICE_OPEN_4_5_DAYLIGHT,OFFICE_OPEN_4_5,OFFICE_OPEN_4_5_WINDOW_3,OFFICE_OPEN_4_5_REFERENCEPOINT1,0.0000
 Sky Daylight Factors,Overcast Sky,01/01,OFFICE_OPEN_4_5_DAYLIGHT,OFFICE_OPEN_4_5,OFFICE_OPEN_4_5_WINDOW_3,OFFICE_OPEN_4_5_REFERENCEPOINT1,0.0000
 Sky Daylight Factors,Clear Sky,01/01,OFFICE_OPEN_4_5_DAYLIGHT,OFFICE_OPEN_4_5,OFFICE_OPEN_4_5_WINDOW_4,OFFICE_OPEN_4_5_REFERENCEPOINT1,5.7344E-007
 Sky Daylight Factors,Clear Turbid Sky,01/01,OFFICE_OPEN_4_5_DAYLIGHT,OFFICE_OPEN_4_5,OFFICE_OPEN_4_5_WINDOW_4,OFFICE_OPEN_4_5_REFERENCEPOINT1,5.5123E-007
 Sky Daylight Factors,Intermediate Sky,01/01,OFFICE_OPEN_4_5_DAYLIGHT,OFFICE_OPEN_4_5,OFFICE_OPEN_4_5_WINDOW_4,OFFICE_OPEN_4_5_REFERENCEPOINT1,7.9700E-007
 Sky Daylight Factors,Overcast Sky,01/01,OFFICE_OPEN_4_5_DAYLIGHT,OFFICE_OPEN_4_5,OFFICE_OPEN_4_5_WINDOW_4,OFFICE_OPEN_4_5_REFERENCEPOINT1,1.1702E-006
 Sky Daylight Factors,Clear Sky,01/01,OFFICE_OPEN_4_6_DAYLIGHT,OFFICE_OPEN_4_6,OFFICE_OPEN_4_6_WINDOW_1,OFFICE_OPEN_4_6_REFERENCEPOINT1,0.0000
 Sky Daylight Factors,Clear Turbid Sky,01/01,OFFICE_OPEN_4_6_DAYLIGHT,OFFICE_OPEN_4_6,OFFICE_OPEN_4_6_WINDOW_1,OFFICE_OPEN_4_6_REFERENCEPOINT1,0.0000
 Sky Daylight Factors,Intermediate Sky,01/01,OFFICE_OPEN_4_6_DAYLIGHT,OFFICE_OPEN_4_6,OFFICE_OPEN_4_6_WINDOW_1,OFFICE_OPEN_4_6_REFERENCEPOINT1,0.0000
 Sky Daylight Factors,Overcast Sky,01/01,OFFICE_OPEN_4_6_DAYLIGHT,OFFICE_OPEN_4_6,OFFICE_OPEN_4_6_WINDOW_1,OFFICE_OPEN_4_6_REFERENCEPOINT1,0.0000
 Sky Daylight Factors,Clear Sky,01/01,OFFICE_OPEN_4_6_DAYLIGHT,OFFICE_OPEN_4_6,OFFICE_OPEN_4_6_WINDOW_2,OFFICE_OPEN_4_6_REFERENCEPOINT1,0.0000
 Sky Daylight Factors,Clear Turbid Sky,01/01,OFFICE_OPEN_4_6_DAYLIGHT,OFFICE_OPEN_4_6,OFFICE_OPEN_4_6_WINDOW_2,OFFICE_OPEN_4_6_REFERENCEPOINT1,0.0000
 Sky Daylight Factors,Intermediate Sky,01/01,OFFICE_OPEN_4_6_DAYLIGHT,OFFICE_OPEN_4_6,OFFICE_OPEN_4_6_WINDOW_2,OFFICE_OPEN_4_6_REFERENCEPOINT1,0.0000
 Sky Daylight Factors,Overcast Sky,01/01,OFFICE_OPEN_4_6_DAYLIGHT,OFFICE_OPEN_4_6,OFFICE_OPEN_4_6_WINDOW_2,OFFICE_OPEN_4_6_REFERENCEPOINT1,0.0000
 Sky Daylight Factors,Clear Sky,01/01,OFFICE_OPEN_4_6_DAYLIGHT,OFFICE_OPEN_4_6,OFFICE_OPEN_4_6_WINDOW_3,OFFICE_OPEN_4_6_REFERENCEPOINT1,0.0000
 Sky Daylight Factors,Clear Turbid Sky,01/01,OFFICE_OPEN_4_6_DAYLIGHT,OFFICE_OPEN_4_6,OFFICE_OPEN_4_6_WINDOW_3,OFFICE_OPEN_4_6_REFERENCEPOINT1,0.0000
 Sky Daylight Factors,Intermediate Sky,01/01,OFFICE_OPEN_4_6_DAYLIGHT,OFFICE_OPEN_4_6,OFFICE_OPEN_4_6_WINDOW_3,OFFICE_OPEN_4_6_REFERENCEPOINT1,0.0000
 Sky Daylight Factors,Overcast Sky,01/01,OFFICE_OPEN_4_6_DAYLIGHT,OFFICE_OPEN_4_6,OFFICE_OPEN_4_6_WINDOW_3,OFFICE_OPEN_4_6_REFERENCEPOINT1,0.0000
 Sky Daylight Factors,Clear Sky,01/01,OFFICE_OPEN_4_6_DAYLIGHT,OFFICE_OPEN_4_6,OFFICE_OPEN_4_6_WINDOW_4,OFFICE_OPEN_4_6_REFERENCEPOINT1,1.4606E-006
 Sky Daylight Factors,Clear Turbid Sky,01/01,OFFICE_OPEN_4_6_DAYLIGHT,OFFICE_OPEN_4_6,OFFICE_OPEN_4_6_WINDOW_4,OFFICE_OPEN_4_6_REFERENCEPOINT1,1.2893E-006
 Sky Daylight Factors,Intermediate Sky,01/01,OFFICE_OPEN_4_6_DAYLIGHT,OFFICE_OPEN_4_6,OFFICE_OPEN_4_6_WINDOW_4,OFFICE_OPEN_4_6_REFERENCEPOINT1,2.3401E-006
 Sky Daylight Factors,Overcast Sky,01/01,OFFICE_OPEN_4_6_DAYLIGHT,OFFICE_OPEN_4_6,OFFICE_OPEN_4_6_WINDOW_4,OFFICE_OPEN_4_6_REFERENCEPOINT1,3.4452E-006
 Sky Daylight Factors,Clear Sky,01/01,OFFICE_OPEN_4_7_DAYLIGHT,OFFICE_OPEN_4_7,OFFICE_OPEN_4_7_WINDOW_1,OFFICE_OPEN_4_7_REFERENCEPOINT1,4.4484E-007
 Sky Daylight Factors,Clear Turbid Sky,01/01,OFFICE_OPEN_4_7_DAYLIGHT,OFFICE_OPEN_4_7,OFFICE_OPEN_4_7_WINDOW_1,OFFICE_OPEN_4_7_REFERENCEPOINT1,4.2758E-007
 Sky Daylight Factors,Intermediate Sky,01/01,OFFICE_OPEN_4_7_DAYLIGHT,OFFICE_OPEN_4_7,OFFICE_OPEN_4_7_WINDOW_1,OFFICE_OPEN_4_7_REFERENCEPOINT1,6.1832E-007
 Sky Daylight Factors,Overcast Sky,01/01,OFFICE_OPEN_4_7_DAYLIGHT,OFFICE_OPEN_4_7,OFFICE_OPEN_4_7_WINDOW_1,OFFICE_OPEN_4_7_REFERENCEPOINT1,9.0812E-007
 Sky Daylight Factors,Clear Sky,01/01,OFFICE_OPEN_4_7_DAYLIGHT,OFFICE_OPEN_4_7,OFFICE_OPEN_4_7_WINDOW_2,OFFICE_OPEN_4_7_REFERENCEPOINT1,1.2811E-007
 Sky Daylight Factors,Clear Turbid Sky,01/01,OFFICE_OPEN_4_7_DAYLIGHT,OFFICE_OPEN_4_7,OFFICE_OPEN_4_7_WINDOW_2,OFFICE_OPEN_4_7_REFERENCEPOINT1,1.1494E-007
 Sky Daylight Factors,Intermediate Sky,01/01,OFFICE_OPEN_4_7_DAYLIGHT,OFFICE_OPEN_4_7,OFFICE_OPEN_4_7_WINDOW_2,OFFICE_OPEN_4_7_REFERENCEPOINT1,2.0229E-007
 Sky Daylight Factors,Overcast Sky,01/01,OFFICE_OPEN_4_7_DAYLIGHT,OFFICE_OPEN_4_7,OFFICE_OPEN_4_7_WINDOW_2,OFFICE_OPEN_4_7_REFERENCEPOINT1,3.2671E-007
 Sky Daylight Factors,Clear Sky,01/01,OFFICE_OPEN_4_7_DAYLIGHT,OFFICE_OPEN_4_7,OFFICE_OPEN_4_7_WINDOW_3,OFFICE_OPEN_4_7_REFERENCEPOINT1,1.4402E-007
 Sky Daylight Factors,Clear Turbid Sky,01/01,OFFICE_OPEN_4_7_DAYLIGHT,OFFICE_OPEN_4_7,OFFICE_OPEN_4_7_WINDOW_3,OFFICE_OPEN_4_7_REFERENCEPOINT1,1.3843E-007
 Sky Daylight Factors,Intermediate Sky,01/01,OFFICE_OPEN_4_7_DAYLIGHT,OFFICE_OPEN_4_7,OFFICE_OPEN_4_7_WINDOW_3,OFFICE_OPEN_4_7_REFERENCEPOINT1,2.0019E-007
 Sky Daylight Factors,Overcast Sky,01/01,OFFICE_OPEN_4_7_DAYLIGHT,OFFICE_OPEN_4_7,OFFICE_OPEN_4_7_WINDOW_3,OFFICE_OPEN_4_7_REFERENCEPOINT1,2.9401E-007
 Sky Daylight Factors,Clear Sky,01/01,OFFICE_OPEN_4_7_DAYLIGHT,OFFICE_OPEN_4_7,OFFICE_OPEN_4_7_WINDOW_4,OFFICE_OPEN_4_7_REFERENCEPOINT1,0.0000
 Sky Daylight Factors,Clear Turbid Sky,01/01,OFFICE_OPEN_4_7_DAYLIGHT,OFFICE_OPEN_4_7,OFFICE_OPEN_4_7_WINDOW_4,OFFICE_OPEN_4_7_REFERENCEPOINT1,0.0000
 Sky Daylight Factors,Intermediate Sky,01/01,OFFICE_OPEN_4_7_DAYLIGHT,OFFICE_OPEN_4_7,OFFICE_OPEN_4_7_WINDOW_4,OFFICE_OPEN_4_7_REFERENCEPOINT1,0.0000
 Sky Daylight Factors,Overcast Sky,01/01,OFFICE_OPEN_4_7_DAYLIGHT,OFFICE_OPEN_4_7,OFFICE_OPEN_4_7_WINDOW_4,OFFICE_OPEN_4_7_REFERENCEPOINT1,0.0000
 Sky Daylight Factors,Clear Sky,01/01,OFFICE_OPEN_4_7_DAYLIGHT,OFFICE_OPEN_4_7,OFFICE_OPEN_4_7_WINDOW_5,OFFICE_OPEN_4_7_REFERENCEPOINT1,0.0000
 Sky Daylight Factors,Clear Turbid Sky,01/01,OFFICE_OPEN_4_7_DAYLIGHT,OFFICE_OPEN_4_7,OFFICE_OPEN_4_7_WINDOW_5,OFFICE_OPEN_4_7_REFERENCEPOINT1,0.0000
 Sky Daylight Factors,Intermediate Sky,01/01,OFFICE_OPEN_4_7_DAYLIGHT,OFFICE_OPEN_4_7,OFFICE_OPEN_4_7_WINDOW_5,OFFICE_OPEN_4_7_REFERENCEPOINT1,0.0000
 Sky Daylight Factors,Overcast Sky,01/01,OFFICE_OPEN_4_7_DAYLIGHT,OFFICE_OPEN_4_7,OFFICE_OPEN_4_7_WINDOW_5,OFFICE_OPEN_4_7_REFERENCEPOINT1,0.0000
 Sky Daylight Factors,Clear Sky,01/01,OFFICE_OPEN_4_7_DAYLIGHT,OFFICE_OPEN_4_7,OFFICE_OPEN_4_7_WINDOW_6,OFFICE_OPEN_4_7_REFERENCEPOINT1,1.5045E-006
 Sky Daylight Factors,Clear Turbid Sky,01/01,OFFICE_OPEN_4_7_DAYLIGHT,OFFICE_OPEN_4_7,OFFICE_OPEN_4_7_WINDOW_6,OFFICE_OPEN_4_7_REFERENCEPOINT1,1.3280E-006
 Sky Daylight Factors,Intermediate Sky,01/01,OFFICE_OPEN_4_7_DAYLIGHT,OFFICE_OPEN_4_7,OFFICE_OPEN_4_7_WINDOW_6,OFFICE_OPEN_4_7_REFERENCEPOINT1,2.4104E-006
 Sky Daylight Factors,Overcast Sky,01/01,OFFICE_OPEN_4_7_DAYLIGHT,OFFICE_OPEN_4_7,OFFICE_OPEN_4_7_WINDOW_6,OFFICE_OPEN_4_7_REFERENCEPOINT1,3.5487E-006
Environment:WarmupDays,  6
! <Warmup Convergence Information>,Zone Name,Environment Type/Name,Average Warmup Temperature Difference {deltaC},Std Dev Warmup Temperature Difference {deltaC},Max Temperature Pass/Fail Convergence,Min Temperature Pass/Fail Convergence,Average Warmup Load Difference {W},Std Dev Warmup Load Difference {W},Heating Load Pass/Fail Convergence,Cooling Load Pass/Fail Convergence
 Warmup Convergence Information,LOBBY_0,RunPeriod: YEAR ROUND RUN PERIOD,0.1893714572,0.3374666395,Pass,Pass,3.8107128858E-003,6.4692740003E-003,Pass,Pass
 Warmup Convergence Information,CONFERENCE_0,RunPeriod: YEAR ROUND RUN PERIOD,0.1922488257,0.3338322426,Pass,Pass,3.8874512819E-003,6.4129972380E-003,Pass,Pass
 Warmup Convergence Information,BREAK_ROOM_0,RunPeriod: YEAR ROUND RUN PERIOD,0.2008430284,0.3327864512,Pass,Pass,4.0827926355E-003,6.4519863453E-003,Pass,Pass
 Warmup Convergence Information,MECHANICAL_0,RunPeriod: YEAR ROUND RUN PERIOD,0.1904887218,0.3346227229,Pass,Pass,3.8209236689E-003,6.3901494183E-003,Pass,Pass
 Warmup Convergence Information,OFFICE_OPEN_0,RunPeriod: YEAR ROUND RUN PERIOD,0.1913969345,0.3393464020,Pass,Pass,3.8621069485E-003,6.5194695013E-003,Pass,Pass
 Warmup Convergence Information,OFFICE_PRIVATE_0,RunPeriod: YEAR ROUND RUN PERIOD,0.2007955830,0.3349500477,Pass,Pass,4.0818947911E-003,6.4706019573E-003,Pass,Pass
 Warmup Convergence Information,STORAGE_0,RunPeriod: YEAR ROUND RUN PERIOD,0.1906247621,0.3362206638,Pass,Pass,3.8271747750E-003,6.4283752108E-003,Pass,Pass
 Warmup Convergence Information,OFFICE_OPEN_0_2,RunPeriod: YEAR ROUND RUN PERIOD,0.1913962754,0.3393454826,Pass,Pass,3.8620933994E-003,6.5194527654E-003,Pass,Pass
 Warmup Convergence Information,OFFICE_OPEN_0_3,RunPeriod: YEAR ROUND RUN PERIOD,0.1913900645,0.3391265190,Pass,Pass,3.8622439869E-003,6.5158914959E-003,Pass,Pass
 Warmup Convergence Information,OFFICE_OPEN_0_4,RunPeriod: YEAR ROUND RUN PERIOD,0.2346527355,0.3485727170,Pass,Pass,4.7863746095E-003,6.8569003770E-003,Pass,Pass
 Warmup Convergence Information,OFFICE_OPEN_0_5,RunPeriod: YEAR ROUND RUN PERIOD,0.1913968608,0.3393464159,Pass,Pass,3.8621052639E-003,6.5194696765E-003,Pass,Pass
 Warmup Convergence Information,OFFICE_OPEN_0_6,RunPeriod: YEAR ROUND RUN PERIOD,0.1913962387,0.3393452529,Pass,Pass,3.8620931249E-003,6.5194508522E-003,Pass,Pass
 Warmup Convergence Information,LOBBY_1,RunPeriod: YEAR ROUND RUN PERIOD,0.1920648703,0.3342658357,Pass,Pass,3.8688211952E-003,6.4067311558E-003,Pass,Pass
 Warmup Convergence Information,CONFERENCE_1,RunPeriod: YEAR ROUND RUN PERIOD,0.1918392938,0.3353761691,Pass,Pass,3.8701508456E-003,6.4382087949E-003,Pass,Pass
 Warmup Convergence Information,BREAK_ROOM_1,RunPeriod: YEAR ROUND RUN PERIOD,0.1924844438,0.3353188710,Pass,Pass,3.8984121743E-003,6.4498591773E-003,Pass,Pass
 Warmup Convergence Information,MECHANICAL_1,RunPeriod: YEAR ROUND RUN PERIOD,0.1917720350,0.3319140378,Pass,Pass,3.8593103331E-003,6.3431053265E-003,Pass,Pass
 Warmup Convergence Information,OFFICE_OPEN_1,RunPeriod: YEAR ROUND RUN PERIOD,0.1905138181,0.3394557815,Pass,Pass,3.8364709278E-003,6.5113126864E-003,Pass,Pass
 Warmup Convergence Information,OFFICE_PRIVATE_1,RunPeriod: YEAR ROUND RUN PERIOD,0.1905133271,0.3394546377,Pass,Pass,3.8364615141E-003,6.5112934209E-003,Pass,Pass
 Warmup Convergence Information,STORAGE_1,RunPeriod: YEAR ROUND RUN PERIOD,0.1903789157,0.3374079943,Pass,Pass,3.8159848842E-003,6.4415415244E-003,Pass,Pass
 Warmup Convergence Information,OFFICE_OPEN_1_2,RunPeriod: YEAR ROUND RUN PERIOD,0.1905131536,0.3394548646,Pass,Pass,3.8364572726E-003,6.5112960081E-003,Pass,Pass
 Warmup Convergence Information,OFFICE_OPEN_1_3,RunPeriod: YEAR ROUND RUN PERIOD,0.2022527568,0.3270922079,Pass,Pass,4.0801598793E-003,6.2854058627E-003,Pass,Pass
 Warmup Convergence Information,OFFICE_OPEN_1_4,RunPeriod: YEAR ROUND RUN PERIOD,0.1933591241,0.3343639615,Pass,Pass,3.9072499177E-003,6.4197202108E-003,Pass,Pass
 Warmup Convergence Information,OFFICE_OPEN_1_5,RunPeriod: YEAR ROUND RUN PERIOD,0.1905137465,0.3394557952,Pass,Pass,3.8364692926E-003,6.5113128573E-003,Pass,Pass
 Warmup Convergence Information,OFFICE_OPEN_1_6,RunPeriod: YEAR ROUND RUN PERIOD,0.1894496109,0.3351433752,Pass,Pass,3.8199667942E-003,6.4408799409E-003,Pass,Pass
 Warmup Convergence Information,OFFICE_OPEN_1_7,RunPeriod: YEAR ROUND RUN PERIOD,0.1951640322,0.3334648063,Pass,Pass,3.9507702798E-003,6.4097446738E-003,Pass,Pass
 Warmup Convergence Information,LOBBY_2,RunPeriod: YEAR ROUND RUN PERIOD,0.1930949871,0.3335051846,Pass,Pass,3.8945807640E-003,6.3885740017E-003,Pass,Pass
 Warmup Convergence Information,CONFERENCE_2,RunPeriod: YEAR ROUND RUN PERIOD,0.1932464924,0.3346324283,Pass,Pass,3.9080846513E-003,6.4264518471E-003,Pass,Pass
 Warmup Convergence Information,BREAK_ROOM_2,RunPeriod: YEAR ROUND RUN PERIOD,0.1912876219,0.3387610273,Pass,Pass,3.8606053807E-003,6.5109204001E-003,Pass,Pass
 Warmup Convergence Information,MECHANICAL_2,RunPeriod: YEAR ROUND RUN PERIOD,0.1905652188,0.3341626766,Pass,Pass,3.8183379253E-003,6.3762092831E-003,Pass,Pass
 Warmup Convergence Information,OFFICE_OPEN_2,RunPeriod: YEAR ROUND RUN PERIOD,0.1901310920,0.3395451960,Pass,Pass,3.8249501262E-003,6.5083175911E-003,Pass,Pass
 Warmup Convergence Information,OFFICE_PRIVATE_2,RunPeriod: YEAR ROUND RUN PERIOD,0.1901305608,0.3395440679,Pass,Pass,3.8249398284E-003,6.5082986913E-003,Pass,Pass
 Warmup Convergence Information,STORAGE_2,RunPeriod: YEAR ROUND RUN PERIOD,0.1927352615,0.3323704906,Pass,Pass,3.8779737537E-003,6.3577432030E-003,Pass,Pass
 Warmup Convergence Information,OFFICE_OPEN_2_2,RunPeriod: YEAR ROUND RUN PERIOD,0.2109295840,0.3341539516,Pass,Pass,4.2649457538E-003,6.4643497192E-003,Pass,Pass
 Warmup Convergence Information,OFFICE_OPEN_2_3,RunPeriod: YEAR ROUND RUN PERIOD,0.1901298498,0.3395435360,Pass,Pass,3.8249245207E-003,6.5082874285E-003,Pass,Pass
 Warmup Convergence Information,OFFICE_OPEN_2_4,RunPeriod: YEAR ROUND RUN PERIOD,0.2153161754,0.3329469862,Pass,Pass,4.3722895580E-003,6.4757037675E-003,Pass,Pass
 Warmup Convergence Information,OFFICE_OPEN_2_5,RunPeriod: YEAR ROUND RUN PERIOD,0.1988880618,0.3331649806,Pass,Pass,4.0253137334E-003,6.4153347378E-003,Pass,Pass
 Warmup Convergence Information,OFFICE_OPEN_2_6,RunPeriod: YEAR ROUND RUN PERIOD,0.1901304457,0.3395440250,Pass,Pass,3.8249374055E-003,6.5082984738E-003,Pass,Pass
 Warmup Convergence Information,OFFICE_OPEN_2_7,RunPeriod: YEAR ROUND RUN PERIOD,0.1907047180,0.3387679283,Pass,Pass,3.8378142620E-003,6.4942591112E-003,Pass,Pass
 Warmup Convergence Information,LOBBY_3,RunPeriod: YEAR ROUND RUN PERIOD,0.1876493108,0.3431987092,Pass,Pass,3.7576052969E-003,6.5572071893E-003,Pass,Pass
 Warmup Convergence Information,CONFERENCE_3,RunPeriod: YEAR ROUND RUN PERIOD,0.1903482984,0.3333677914,Pass,Pass,3.8323395977E-003,6.3901020467E-003,Pass,Pass
 Warmup Convergence Information,BREAK_ROOM_3,RunPeriod: YEAR ROUND RUN PERIOD,0.1993041234,0.3331659205,Pass,Pass,4.0349337349E-003,6.4393016424E-003,Pass,Pass
 Warmup Convergence Information,MECHANICAL_3,RunPeriod: YEAR ROUND RUN PERIOD,0.1887208936,0.3373880494,Pass,Pass,3.7713739007E-003,6.4257149916E-003,Pass,Pass
 Warmup Convergence Information,OFFICE_OPEN_3,RunPeriod: YEAR ROUND RUN PERIOD,0.1898436008,0.3396333105,Pass,Pass,3.8160792197E-003,6.5061550601E-003,Pass,Pass
 Warmup Convergence Information,OFFICE_PRIVATE_3,RunPeriod: YEAR ROUND RUN PERIOD,0.1898429627,0.3396322215,Pass,Pass,3.8160665646E-003,6.5061371305E-003,Pass,Pass
 Warmup Convergence Information,STORAGE_3,RunPeriod: YEAR ROUND RUN PERIOD,0.1898243659,0.3375398759,Pass,Pass,3.7982531245E-003,6.4354930025E-003,Pass,Pass
 Warmup Convergence Information,OFFICE_OPEN_3_2,RunPeriod: YEAR ROUND RUN PERIOD,0.1898427294,0.3396324716,Pass,Pass,3.8160610147E-003,6.5061402794E-003,Pass,Pass
 Warmup Convergence Information,OFFICE_OPEN_3_3,RunPeriod: YEAR ROUND RUN PERIOD,0.1898421194,0.3396317389,Pass,Pass,3.8160483476E-003,6.5061270831E-003,Pass,Pass
 Warmup Convergence Information,OFFICE_OPEN_3_4,RunPeriod: YEAR ROUND RUN PERIOD,0.1904857415,0.3372932854,Pass,Pass,3.8303608253E-003,6.4611345121E-003,Pass,Pass
 Warmup Convergence Information,OFFICE_OPEN_3_5,RunPeriod: YEAR ROUND RUN PERIOD,0.1898435238,0.3396333266,Pass,Pass,3.8160774688E-003,6.5061552860E-003,Pass,Pass
 Warmup Convergence Information,OFFICE_OPEN_3_6,RunPeriod: YEAR ROUND RUN PERIOD,0.1898427907,0.3396321984,Pass,Pass,3.8160628835E-003,6.5061373614E-003,Pass,Pass
 Warmup Convergence Information,OFFICE_OPEN_3_7,RunPeriod: YEAR ROUND RUN PERIOD,0.1904882774,0.3388247915,Pass,Pass,3.8304907245E-003,6.4913793126E-003,Pass,Pass
 Warmup Convergence Information,LOBBY_4,RunPeriod: YEAR ROUND RUN PERIOD,0.1889690706,0.3380012242,Pass,Pass,3.7882114293E-003,6.4585234867E-003,Pass,Pass
 Warmup Convergence Information,CONFERENCE_4,RunPeriod: YEAR ROUND RUN PERIOD,0.1904473050,0.3379289396,Pass,Pass,3.8287870368E-003,6.4737259135E-003,Pass,Pass
 Warmup Convergence Information,BREAK_ROOM_4,RunPeriod: YEAR ROUND RUN PERIOD,0.1916852544,0.3310899645,Pass,Pass,3.8715008076E-003,6.3455688699E-003,Pass,Pass
 Warmup Convergence Information,MECHANICAL_4,RunPeriod: YEAR ROUND RUN PERIOD,0.1895735658,0.3329496014,Pass,Pass,3.7898136292E-003,6.3379631514E-003,Pass,Pass
 Warmup Convergence Information,OFFICE_OPEN_4,RunPeriod: YEAR ROUND RUN PERIOD,0.2038328287,0.3357114546,Pass,Pass,4.1293686393E-003,6.4822812383E-003,Pass,Pass
 Warmup Convergence Information,OFFICE_PRIVATE_4,RunPeriod: YEAR ROUND RUN PERIOD,0.1910045804,0.3359484020,Pass,Pass,3.8394885352E-003,6.4367992102E-003,Pass,Pass
 Warmup Convergence Information,STORAGE_4,RunPeriod: YEAR ROUND RUN PERIOD,0.1896445227,0.3375943638,Pass,Pass,3.7920590487E-003,6.4330276365E-003,Pass,Pass
 Warmup Convergence Information,OFFICE_OPEN_4_2,RunPeriod: YEAR ROUND RUN PERIOD,0.1907286725,0.3377627894,Pass,Pass,3.8334076827E-003,6.4701995926E-003,Pass,Pass
 Warmup Convergence Information,OFFICE_OPEN_4_3,RunPeriod: YEAR ROUND RUN PERIOD,0.1903022660,0.3389053235,Pass,Pass,3.8241076880E-003,6.4893495177E-003,Pass,Pass
 Warmup Convergence Information,OFFICE_OPEN_4_4,RunPeriod: YEAR ROUND RUN PERIOD,0.1903254202,0.3373509364,Pass,Pass,3.8245286296E-003,6.4587452246E-003,Pass,Pass
 Warmup Convergence Information,OFFICE_OPEN_4_5,RunPeriod: YEAR ROUND RUN PERIOD,0.1896142120,0.3397162614,Pass,Pass,3.8087535214E-003,6.5043280962E-003,Pass,Pass
 Warmup Convergence Information,OFFICE_OPEN_4_6,RunPeriod: YEAR ROUND RUN PERIOD,0.1896128266,0.3397154310,Pass,Pass,3.8087244941E-003,6.5043168543E-003,Pass,Pass
 Warmup Convergence Information,OFFICE_OPEN_4_7,RunPeriod: YEAR ROUND RUN PERIOD,0.1903242352,0.3388773501,Pass,Pass,3.8245896875E-003,6.4888462334E-003,Pass,Pass
! <Program Control Information:Threads/Parallel Sims>, Threading Supported,Maximum Number of Threads, Env Set Threads (OMP_NUM_THREADS), EP Env Set Threads (EP_OMP_NUM_THREADS), IDF Set Threads, Number of Threads Used (Interior Radiant Exchange), Number Nominal Surfaces, Number Parallel Sims
Program Control:Threads/Parallel Sims, No,1, N/A, N/A, N/A, N/A, N/A, N/A
End of Data
