Program Version,EnergyPlus, Version 24.2.0-94a887817b, YMD=2025.11.03 23:56
! This file shows details about the branches, nodes, and other
! elements of the flow connections.
! This file is intended for use in "debugging" potential problems
! that may also be detected by the program, but may be more easily
! identified by "eye".
! This file is also intended to support software which draws a
! schematic diagram of the HVAC system.
! ===============================================================
! #Nodes,<Number of Unique Nodes>
 #Nodes,704
! <Node>,<NodeNumber>,<Node Name>,<Node Fluid Type>,<# Times Node Referenced After Definition>
 Node,1,LOBBY_0_Z1_ADUOUTLET,Air,4
 Node,2,CONFERENCE_0_Z2_ADUOUTLET,Air,4
 Node,3,BREAK_ROOM_0_Z3_ADUOUTLET,Air,4
 Node,4,MECHANICAL_0_Z4_ADUOUTLET,Air,4
 Node,5,OFFICE_OPEN_0_Z5_ADUOUTLET,Air,4
 Node,6,OFFICE_PRIVATE_0_Z6_ADUOUTLET,Air,4
 Node,7,STORAGE_0_Z7_ADUOUTLET,Air,4
 Node,8,OFFICE_OPEN_0_2_Z8_ADUOUTLET,Air,4
 Node,9,OFFICE_OPEN_0_3_Z9_ADUOUTLET,Air,4
 Node,10,OFFICE_OPEN_0_4_Z10_ADUOUTLET,Air,4
 Node,11,OFFICE_OPEN_0_5_Z11_ADUOUTLET,Air,4
 Node,12,OFFICE_OPEN_0_6_Z12_ADUOUTLET,Air,4
 Node,13,LOBBY_1_Z13_ADUOUTLET,Air,4
 Node,14,CONFERENCE_1_Z14_ADUOUTLET,Air,4
 Node,15,BREAK_ROOM_1_Z15_ADUOUTLET,Air,4
 Node,16,MECHANICAL_1_Z16_ADUOUTLET,Air,4
 Node,17,OFFICE_OPEN_1_Z17_ADUOUTLET,Air,4
 Node,18,OFFICE_PRIVATE_1_Z18_ADUOUTLET,Air,4
 Node,19,STORAGE_1_Z19_ADUOUTLET,Air,4
 Node,20,OFFICE_OPEN_1_2_Z20_ADUOUTLET,Air,4
 Node,21,OFFICE_OPEN_1_3_Z21_ADUOUTLET,Air,4
 Node,22,OFFICE_OPEN_1_4_Z22_ADUOUTLET,Air,4
 Node,23,OFFICE_OPEN_1_5_Z23_ADUOUTLET,Air,4
 Node,24,OFFICE_OPEN_1_6_Z24_ADUOUTLET,Air,4
 Node,25,OFFICE_OPEN_1_7_Z25_ADUOUTLET,Air,4
 Node,26,LOBBY_2_Z26_ADUOUTLET,Air,4
 Node,27,CONFERENCE_2_Z27_ADUOUTLET,Air,4
 Node,28,BREAK_ROOM_2_Z28_ADUOUTLET,Air,4
 Node,29,MECHANICAL_2_Z29_ADUOUTLET,Air,4
 Node,30,OFFICE_OPEN_2_Z30_ADUOUTLET,Air,4
 Node,31,OFFICE_PRIVATE_2_Z31_ADUOUTLET,Air,4
 Node,32,STORAGE_2_Z32_ADUOUTLET,Air,4
 Node,33,OFFICE_OPEN_2_2_Z33_ADUOUTLET,Air,4
 Node,34,OFFICE_OPEN_2_3_Z34_ADUOUTLET,Air,4
 Node,35,OFFICE_OPEN_2_4_Z35_ADUOUTLET,Air,4
 Node,36,OFFICE_OPEN_2_5_Z36_ADUOUTLET,Air,4
 Node,37,OFFICE_OPEN_2_6_Z37_ADUOUTLET,Air,4
 Node,38,OFFICE_OPEN_2_7_Z38_ADUOUTLET,Air,4
 Node,39,LOBBY_3_Z39_ADUOUTLET,Air,4
 Node,40,CONFERENCE_3_Z40_ADUOUTLET,Air,4
 Node,41,BREAK_ROOM_3_Z41_ADUOUTLET,Air,4
 Node,42,MECHANICAL_3_Z42_ADUOUTLET,Air,4
 Node,43,OFFICE_OPEN_3_Z43_ADUOUTLET,Air,4
 Node,44,OFFICE_PRIVATE_3_Z44_ADUOUTLET,Air,4
 Node,45,STORAGE_3_Z45_ADUOUTLET,Air,4
 Node,46,OFFICE_OPEN_3_2_Z46_ADUOUTLET,Air,4
 Node,47,OFFICE_OPEN_3_3_Z47_ADUOUTLET,Air,4
 Node,48,OFFICE_OPEN_3_4_Z48_ADUOUTLET,Air,4
 Node,49,OFFICE_OPEN_3_5_Z49_ADUOUTLET,Air,4
 Node,50,OFFICE_OPEN_3_6_Z50_ADUOUTLET,Air,4
 Node,51,OFFICE_OPEN_3_7_Z51_ADUOUTLET,Air,4
 Node,52,LOBBY_4_Z52_ADUOUTLET,Air,4
 Node,53,CONFERENCE_4_Z53_ADUOUTLET,Air,4
 Node,54,BREAK_ROOM_4_Z54_ADUOUTLET,Air,4
 Node,55,MECHANICAL_4_Z55_ADUOUTLET,Air,4
 Node,56,OFFICE_OPEN_4_Z56_ADUOUTLET,Air,4
 Node,57,OFFICE_PRIVATE_4_Z57_ADUOUTLET,Air,4
 Node,58,STORAGE_4_Z58_ADUOUTLET,Air,4
 Node,59,OFFICE_OPEN_4_2_Z59_ADUOUTLET,Air,4
 Node,60,OFFICE_OPEN_4_3_Z60_ADUOUTLET,Air,4
 Node,61,OFFICE_OPEN_4_4_Z61_ADUOUTLET,Air,4
 Node,62,OFFICE_OPEN_4_5_Z62_ADUOUTLET,Air,4
 Node,63,OFFICE_OPEN_4_6_Z63_ADUOUTLET,Air,4
 Node,64,OFFICE_OPEN_4_7_Z64_ADUOUTLET,Air,4
 Node,65,LOBBY_0_Z1_SUPPLYINLET,Air,3
 Node,66,LOBBY_0_Z1_COOLC-HEATCNODE,Air,6
 Node,67,LOBBY_0_Z1_HEATC-FANNODE,Air,5
 Node,68,LOBBY_0_Z1_SUPPLYEQUIPMENTOUTLETNODE,Air,3
 Node,69,CONFERENCE_0_Z2_SUPPLYINLET,Air,3
 Node,70,CONFERENCE_0_Z2_COOLC-HEATCNODE,Air,6
 Node,71,CONFERENCE_0_Z2_HEATC-FANNODE,Air,5
 Node,72,CONFERENCE_0_Z2_SUPPLYEQUIPMENTOUTLETNODE,Air,3
 Node,73,BREAK_ROOM_0_Z3_SUPPLYINLET,Air,3
 Node,74,BREAK_ROOM_0_Z3_COOLC-HEATCNODE,Air,6
 Node,75,BREAK_ROOM_0_Z3_HEATC-FANNODE,Air,5
 Node,76,BREAK_ROOM_0_Z3_SUPPLYEQUIPMENTOUTLETNODE,Air,3
 Node,77,MECHANICAL_0_Z4_SUPPLYINLET,Air,3
 Node,78,MECHANICAL_0_Z4_COOLC-HEATCNODE,Air,6
 Node,79,MECHANICAL_0_Z4_HEATC-FANNODE,Air,5
 Node,80,MECHANICAL_0_Z4_SUPPLYEQUIPMENTOUTLETNODE,Air,3
 Node,81,OFFICE_OPEN_0_Z5_SUPPLYINLET,Air,3
 Node,82,OFFICE_OPEN_0_Z5_COOLC-HEATCNODE,Air,6
 Node,83,OFFICE_OPEN_0_Z5_HEATC-FANNODE,Air,5
 Node,84,OFFICE_OPEN_0_Z5_SUPPLYEQUIPMENTOUTLETNODE,Air,3
 Node,85,OFFICE_PRIVATE_0_Z6_SUPPLYINLET,Air,3
 Node,86,OFFICE_PRIVATE_0_Z6_COOLC-HEATCNODE,Air,6
 Node,87,OFFICE_PRIVATE_0_Z6_HEATC-FANNODE,Air,5
 Node,88,OFFICE_PRIVATE_0_Z6_SUPPLYEQUIPMENTOUTLETNODE,Air,3
 Node,89,STORAGE_0_Z7_SUPPLYINLET,Air,3
 Node,90,STORAGE_0_Z7_COOLC-HEATCNODE,Air,6
 Node,91,STORAGE_0_Z7_HEATC-FANNODE,Air,5
 Node,92,STORAGE_0_Z7_SUPPLYEQUIPMENTOUTLETNODE,Air,3
 Node,93,OFFICE_OPEN_0_2_Z8_SUPPLYINLET,Air,3
 Node,94,OFFICE_OPEN_0_2_Z8_COOLC-HEATCNODE,Air,6
 Node,95,OFFICE_OPEN_0_2_Z8_HEATC-FANNODE,Air,5
 Node,96,OFFICE_OPEN_0_2_Z8_SUPPLYEQUIPMENTOUTLETNODE,Air,3
 Node,97,OFFICE_OPEN_0_3_Z9_SUPPLYINLET,Air,3
 Node,98,OFFICE_OPEN_0_3_Z9_COOLC-HEATCNODE,Air,6
 Node,99,OFFICE_OPEN_0_3_Z9_HEATC-FANNODE,Air,5
 Node,100,OFFICE_OPEN_0_3_Z9_SUPPLYEQUIPMENTOUTLETNODE,Air,3
 Node,101,OFFICE_OPEN_0_4_Z10_SUPPLYINLET,Air,3
 Node,102,OFFICE_OPEN_0_4_Z10_COOLC-HEATCNODE,Air,6
 Node,103,OFFICE_OPEN_0_4_Z10_HEATC-FANNODE,Air,5
 Node,104,OFFICE_OPEN_0_4_Z10_SUPPLYEQUIPMENTOUTLETNODE,Air,3
 Node,105,OFFICE_OPEN_0_5_Z11_SUPPLYINLET,Air,3
 Node,106,OFFICE_OPEN_0_5_Z11_COOLC-HEATCNODE,Air,6
 Node,107,OFFICE_OPEN_0_5_Z11_HEATC-FANNODE,Air,5
 Node,108,OFFICE_OPEN_0_5_Z11_SUPPLYEQUIPMENTOUTLETNODE,Air,3
 Node,109,OFFICE_OPEN_0_6_Z12_SUPPLYINLET,Air,3
 Node,110,OFFICE_OPEN_0_6_Z12_COOLC-HEATCNODE,Air,6
 Node,111,OFFICE_OPEN_0_6_Z12_HEATC-FANNODE,Air,5
 Node,112,OFFICE_OPEN_0_6_Z12_SUPPLYEQUIPMENTOUTLETNODE,Air,3
 Node,113,LOBBY_1_Z13_SUPPLYINLET,Air,3
 Node,114,LOBBY_1_Z13_COOLC-HEATCNODE,Air,6
 Node,115,LOBBY_1_Z13_HEATC-FANNODE,Air,5
 Node,116,LOBBY_1_Z13_SUPPLYEQUIPMENTOUTLETNODE,Air,3
 Node,117,CONFERENCE_1_Z14_SUPPLYINLET,Air,3
 Node,118,CONFERENCE_1_Z14_COOLC-HEATCNODE,Air,6
 Node,119,CONFERENCE_1_Z14_HEATC-FANNODE,Air,5
 Node,120,CONFERENCE_1_Z14_SUPPLYEQUIPMENTOUTLETNODE,Air,3
 Node,121,BREAK_ROOM_1_Z15_SUPPLYINLET,Air,3
 Node,122,BREAK_ROOM_1_Z15_COOLC-HEATCNODE,Air,6
 Node,123,BREAK_ROOM_1_Z15_HEATC-FANNODE,Air,5
 Node,124,BREAK_ROOM_1_Z15_SUPPLYEQUIPMENTOUTLETNODE,Air,3
 Node,125,MECHANICAL_1_Z16_SUPPLYINLET,Air,3
 Node,126,MECHANICAL_1_Z16_COOLC-HEATCNODE,Air,6
 Node,127,MECHANICAL_1_Z16_HEATC-FANNODE,Air,5
 Node,128,MECHANICAL_1_Z16_SUPPLYEQUIPMENTOUTLETNODE,Air,3
 Node,129,OFFICE_OPEN_1_Z17_SUPPLYINLET,Air,3
 Node,130,OFFICE_OPEN_1_Z17_COOLC-HEATCNODE,Air,6
 Node,131,OFFICE_OPEN_1_Z17_HEATC-FANNODE,Air,5
 Node,132,OFFICE_OPEN_1_Z17_SUPPLYEQUIPMENTOUTLETNODE,Air,3
 Node,133,OFFICE_PRIVATE_1_Z18_SUPPLYINLET,Air,3
 Node,134,OFFICE_PRIVATE_1_Z18_COOLC-HEATCNODE,Air,6
 Node,135,OFFICE_PRIVATE_1_Z18_HEATC-FANNODE,Air,5
 Node,136,OFFICE_PRIVATE_1_Z18_SUPPLYEQUIPMENTOUTLETNODE,Air,3
 Node,137,STORAGE_1_Z19_SUPPLYINLET,Air,3
 Node,138,STORAGE_1_Z19_COOLC-HEATCNODE,Air,6
 Node,139,STORAGE_1_Z19_HEATC-FANNODE,Air,5
 Node,140,STORAGE_1_Z19_SUPPLYEQUIPMENTOUTLETNODE,Air,3
 Node,141,OFFICE_OPEN_1_2_Z20_SUPPLYINLET,Air,3
 Node,142,OFFICE_OPEN_1_2_Z20_COOLC-HEATCNODE,Air,6
 Node,143,OFFICE_OPEN_1_2_Z20_HEATC-FANNODE,Air,5
 Node,144,OFFICE_OPEN_1_2_Z20_SUPPLYEQUIPMENTOUTLETNODE,Air,3
 Node,145,OFFICE_OPEN_1_3_Z21_SUPPLYINLET,Air,3
 Node,146,OFFICE_OPEN_1_3_Z21_COOLC-HEATCNODE,Air,6
 Node,147,OFFICE_OPEN_1_3_Z21_HEATC-FANNODE,Air,5
 Node,148,OFFICE_OPEN_1_3_Z21_SUPPLYEQUIPMENTOUTLETNODE,Air,3
 Node,149,OFFICE_OPEN_1_4_Z22_SUPPLYINLET,Air,3
 Node,150,OFFICE_OPEN_1_4_Z22_COOLC-HEATCNODE,Air,6
 Node,151,OFFICE_OPEN_1_4_Z22_HEATC-FANNODE,Air,5
 Node,152,OFFICE_OPEN_1_4_Z22_SUPPLYEQUIPMENTOUTLETNODE,Air,3
 Node,153,OFFICE_OPEN_1_5_Z23_SUPPLYINLET,Air,3
 Node,154,OFFICE_OPEN_1_5_Z23_COOLC-HEATCNODE,Air,6
 Node,155,OFFICE_OPEN_1_5_Z23_HEATC-FANNODE,Air,5
 Node,156,OFFICE_OPEN_1_5_Z23_SUPPLYEQUIPMENTOUTLETNODE,Air,3
 Node,157,OFFICE_OPEN_1_6_Z24_SUPPLYINLET,Air,3
 Node,158,OFFICE_OPEN_1_6_Z24_COOLC-HEATCNODE,Air,6
 Node,159,OFFICE_OPEN_1_6_Z24_HEATC-FANNODE,Air,5
 Node,160,OFFICE_OPEN_1_6_Z24_SUPPLYEQUIPMENTOUTLETNODE,Air,3
 Node,161,OFFICE_OPEN_1_7_Z25_SUPPLYINLET,Air,3
 Node,162,OFFICE_OPEN_1_7_Z25_COOLC-HEATCNODE,Air,6
 Node,163,OFFICE_OPEN_1_7_Z25_HEATC-FANNODE,Air,5
 Node,164,OFFICE_OPEN_1_7_Z25_SUPPLYEQUIPMENTOUTLETNODE,Air,3
 Node,165,LOBBY_2_Z26_SUPPLYINLET,Air,3
 Node,166,LOBBY_2_Z26_COOLC-HEATCNODE,Air,6
 Node,167,LOBBY_2_Z26_HEATC-FANNODE,Air,5
 Node,168,LOBBY_2_Z26_SUPPLYEQUIPMENTOUTLETNODE,Air,3
 Node,169,CONFERENCE_2_Z27_SUPPLYINLET,Air,3
 Node,170,CONFERENCE_2_Z27_COOLC-HEATCNODE,Air,6
 Node,171,CONFERENCE_2_Z27_HEATC-FANNODE,Air,5
 Node,172,CONFERENCE_2_Z27_SUPPLYEQUIPMENTOUTLETNODE,Air,3
 Node,173,BREAK_ROOM_2_Z28_SUPPLYINLET,Air,3
 Node,174,BREAK_ROOM_2_Z28_COOLC-HEATCNODE,Air,6
 Node,175,BREAK_ROOM_2_Z28_HEATC-FANNODE,Air,5
 Node,176,BREAK_ROOM_2_Z28_SUPPLYEQUIPMENTOUTLETNODE,Air,3
 Node,177,MECHANICAL_2_Z29_SUPPLYINLET,Air,3
 Node,178,MECHANICAL_2_Z29_COOLC-HEATCNODE,Air,6
 Node,179,MECHANICAL_2_Z29_HEATC-FANNODE,Air,5
 Node,180,MECHANICAL_2_Z29_SUPPLYEQUIPMENTOUTLETNODE,Air,3
 Node,181,OFFICE_OPEN_2_Z30_SUPPLYINLET,Air,3
 Node,182,OFFICE_OPEN_2_Z30_COOLC-HEATCNODE,Air,6
 Node,183,OFFICE_OPEN_2_Z30_HEATC-FANNODE,Air,5
 Node,184,OFFICE_OPEN_2_Z30_SUPPLYEQUIPMENTOUTLETNODE,Air,3
 Node,185,OFFICE_PRIVATE_2_Z31_SUPPLYINLET,Air,3
 Node,186,OFFICE_PRIVATE_2_Z31_COOLC-HEATCNODE,Air,6
 Node,187,OFFICE_PRIVATE_2_Z31_HEATC-FANNODE,Air,5
 Node,188,OFFICE_PRIVATE_2_Z31_SUPPLYEQUIPMENTOUTLETNODE,Air,3
 Node,189,STORAGE_2_Z32_SUPPLYINLET,Air,3
 Node,190,STORAGE_2_Z32_COOLC-HEATCNODE,Air,6
 Node,191,STORAGE_2_Z32_HEATC-FANNODE,Air,5
 Node,192,STORAGE_2_Z32_SUPPLYEQUIPMENTOUTLETNODE,Air,3
 Node,193,OFFICE_OPEN_2_2_Z33_SUPPLYINLET,Air,3
 Node,194,OFFICE_OPEN_2_2_Z33_COOLC-HEATCNODE,Air,6
 Node,195,OFFICE_OPEN_2_2_Z33_HEATC-FANNODE,Air,5
 Node,196,OFFICE_OPEN_2_2_Z33_SUPPLYEQUIPMENTOUTLETNODE,Air,3
 Node,197,OFFICE_OPEN_2_3_Z34_SUPPLYINLET,Air,3
 Node,198,OFFICE_OPEN_2_3_Z34_COOLC-HEATCNODE,Air,6
 Node,199,OFFICE_OPEN_2_3_Z34_HEATC-FANNODE,Air,5
 Node,200,OFFICE_OPEN_2_3_Z34_SUPPLYEQUIPMENTOUTLETNODE,Air,3
 Node,201,OFFICE_OPEN_2_4_Z35_SUPPLYINLET,Air,3
 Node,202,OFFICE_OPEN_2_4_Z35_COOLC-HEATCNODE,Air,6
 Node,203,OFFICE_OPEN_2_4_Z35_HEATC-FANNODE,Air,5
 Node,204,OFFICE_OPEN_2_4_Z35_SUPPLYEQUIPMENTOUTLETNODE,Air,3
 Node,205,OFFICE_OPEN_2_5_Z36_SUPPLYINLET,Air,3
 Node,206,OFFICE_OPEN_2_5_Z36_COOLC-HEATCNODE,Air,6
 Node,207,OFFICE_OPEN_2_5_Z36_HEATC-FANNODE,Air,5
 Node,208,OFFICE_OPEN_2_5_Z36_SUPPLYEQUIPMENTOUTLETNODE,Air,3
 Node,209,OFFICE_OPEN_2_6_Z37_SUPPLYINLET,Air,3
 Node,210,OFFICE_OPEN_2_6_Z37_COOLC-HEATCNODE,Air,6
 Node,211,OFFICE_OPEN_2_6_Z37_HEATC-FANNODE,Air,5
 Node,212,OFFICE_OPEN_2_6_Z37_SUPPLYEQUIPMENTOUTLETNODE,Air,3
 Node,213,OFFICE_OPEN_2_7_Z38_SUPPLYINLET,Air,3
 Node,214,OFFICE_OPEN_2_7_Z38_COOLC-HEATCNODE,Air,6
 Node,215,OFFICE_OPEN_2_7_Z38_HEATC-FANNODE,Air,5
 Node,216,OFFICE_OPEN_2_7_Z38_SUPPLYEQUIPMENTOUTLETNODE,Air,3
 Node,217,LOBBY_3_Z39_SUPPLYINLET,Air,3
 Node,218,LOBBY_3_Z39_COOLC-HEATCNODE,Air,6
 Node,219,LOBBY_3_Z39_HEATC-FANNODE,Air,5
 Node,220,LOBBY_3_Z39_SUPPLYEQUIPMENTOUTLETNODE,Air,3
 Node,221,CONFERENCE_3_Z40_SUPPLYINLET,Air,3
 Node,222,CONFERENCE_3_Z40_COOLC-HEATCNODE,Air,6
 Node,223,CONFERENCE_3_Z40_HEATC-FANNODE,Air,5
 Node,224,CONFERENCE_3_Z40_SUPPLYEQUIPMENTOUTLETNODE,Air,3
 Node,225,BREAK_ROOM_3_Z41_SUPPLYINLET,Air,3
 Node,226,BREAK_ROOM_3_Z41_COOLC-HEATCNODE,Air,6
 Node,227,BREAK_ROOM_3_Z41_HEATC-FANNODE,Air,5
 Node,228,BREAK_ROOM_3_Z41_SUPPLYEQUIPMENTOUTLETNODE,Air,3
 Node,229,MECHANICAL_3_Z42_SUPPLYINLET,Air,3
 Node,230,MECHANICAL_3_Z42_COOLC-HEATCNODE,Air,6
 Node,231,MECHANICAL_3_Z42_HEATC-FANNODE,Air,5
 Node,232,MECHANICAL_3_Z42_SUPPLYEQUIPMENTOUTLETNODE,Air,3
 Node,233,OFFICE_OPEN_3_Z43_SUPPLYINLET,Air,3
 Node,234,OFFICE_OPEN_3_Z43_COOLC-HEATCNODE,Air,6
 Node,235,OFFICE_OPEN_3_Z43_HEATC-FANNODE,Air,5
 Node,236,OFFICE_OPEN_3_Z43_SUPPLYEQUIPMENTOUTLETNODE,Air,3
 Node,237,OFFICE_PRIVATE_3_Z44_SUPPLYINLET,Air,3
 Node,238,OFFICE_PRIVATE_3_Z44_COOLC-HEATCNODE,Air,6
 Node,239,OFFICE_PRIVATE_3_Z44_HEATC-FANNODE,Air,5
 Node,240,OFFICE_PRIVATE_3_Z44_SUPPLYEQUIPMENTOUTLETNODE,Air,3
 Node,241,STORAGE_3_Z45_SUPPLYINLET,Air,3
 Node,242,STORAGE_3_Z45_COOLC-HEATCNODE,Air,6
 Node,243,STORAGE_3_Z45_HEATC-FANNODE,Air,5
 Node,244,STORAGE_3_Z45_SUPPLYEQUIPMENTOUTLETNODE,Air,3
 Node,245,OFFICE_OPEN_3_2_Z46_SUPPLYINLET,Air,3
 Node,246,OFFICE_OPEN_3_2_Z46_COOLC-HEATCNODE,Air,6
 Node,247,OFFICE_OPEN_3_2_Z46_HEATC-FANNODE,Air,5
 Node,248,OFFICE_OPEN_3_2_Z46_SUPPLYEQUIPMENTOUTLETNODE,Air,3
 Node,249,OFFICE_OPEN_3_3_Z47_SUPPLYINLET,Air,3
 Node,250,OFFICE_OPEN_3_3_Z47_COOLC-HEATCNODE,Air,6
 Node,251,OFFICE_OPEN_3_3_Z47_HEATC-FANNODE,Air,5
 Node,252,OFFICE_OPEN_3_3_Z47_SUPPLYEQUIPMENTOUTLETNODE,Air,3
 Node,253,OFFICE_OPEN_3_4_Z48_SUPPLYINLET,Air,3
 Node,254,OFFICE_OPEN_3_4_Z48_COOLC-HEATCNODE,Air,6
 Node,255,OFFICE_OPEN_3_4_Z48_HEATC-FANNODE,Air,5
 Node,256,OFFICE_OPEN_3_4_Z48_SUPPLYEQUIPMENTOUTLETNODE,Air,3
 Node,257,OFFICE_OPEN_3_5_Z49_SUPPLYINLET,Air,3
 Node,258,OFFICE_OPEN_3_5_Z49_COOLC-HEATCNODE,Air,6
 Node,259,OFFICE_OPEN_3_5_Z49_HEATC-FANNODE,Air,5
 Node,260,OFFICE_OPEN_3_5_Z49_SUPPLYEQUIPMENTOUTLETNODE,Air,3
 Node,261,OFFICE_OPEN_3_6_Z50_SUPPLYINLET,Air,3
 Node,262,OFFICE_OPEN_3_6_Z50_COOLC-HEATCNODE,Air,6
 Node,263,OFFICE_OPEN_3_6_Z50_HEATC-FANNODE,Air,5
 Node,264,OFFICE_OPEN_3_6_Z50_SUPPLYEQUIPMENTOUTLETNODE,Air,3
 Node,265,OFFICE_OPEN_3_7_Z51_SUPPLYINLET,Air,3
 Node,266,OFFICE_OPEN_3_7_Z51_COOLC-HEATCNODE,Air,6
 Node,267,OFFICE_OPEN_3_7_Z51_HEATC-FANNODE,Air,5
 Node,268,OFFICE_OPEN_3_7_Z51_SUPPLYEQUIPMENTOUTLETNODE,Air,3
 Node,269,LOBBY_4_Z52_SUPPLYINLET,Air,3
 Node,270,LOBBY_4_Z52_COOLC-HEATCNODE,Air,6
 Node,271,LOBBY_4_Z52_HEATC-FANNODE,Air,5
 Node,272,LOBBY_4_Z52_SUPPLYEQUIPMENTOUTLETNODE,Air,3
 Node,273,CONFERENCE_4_Z53_SUPPLYINLET,Air,3
 Node,274,CONFERENCE_4_Z53_COOLC-HEATCNODE,Air,6
 Node,275,CONFERENCE_4_Z53_HEATC-FANNODE,Air,5
 Node,276,CONFERENCE_4_Z53_SUPPLYEQUIPMENTOUTLETNODE,Air,3
 Node,277,BREAK_ROOM_4_Z54_SUPPLYINLET,Air,3
 Node,278,BREAK_ROOM_4_Z54_COOLC-HEATCNODE,Air,6
 Node,279,BREAK_ROOM_4_Z54_HEATC-FANNODE,Air,5
 Node,280,BREAK_ROOM_4_Z54_SUPPLYEQUIPMENTOUTLETNODE,Air,3
 Node,281,MECHANICAL_4_Z55_SUPPLYINLET,Air,3
 Node,282,MECHANICAL_4_Z55_COOLC-HEATCNODE,Air,6
 Node,283,MECHANICAL_4_Z55_HEATC-FANNODE,Air,5
 Node,284,MECHANICAL_4_Z55_SUPPLYEQUIPMENTOUTLETNODE,Air,3
 Node,285,OFFICE_OPEN_4_Z56_SUPPLYINLET,Air,3
 Node,286,OFFICE_OPEN_4_Z56_COOLC-HEATCNODE,Air,6
 Node,287,OFFICE_OPEN_4_Z56_HEATC-FANNODE,Air,5
 Node,288,OFFICE_OPEN_4_Z56_SUPPLYEQUIPMENTOUTLETNODE,Air,3
 Node,289,OFFICE_PRIVATE_4_Z57_SUPPLYINLET,Air,3
 Node,290,OFFICE_PRIVATE_4_Z57_COOLC-HEATCNODE,Air,6
 Node,291,OFFICE_PRIVATE_4_Z57_HEATC-FANNODE,Air,5
 Node,292,OFFICE_PRIVATE_4_Z57_SUPPLYEQUIPMENTOUTLETNODE,Air,3
 Node,293,STORAGE_4_Z58_SUPPLYINLET,Air,3
 Node,294,STORAGE_4_Z58_COOLC-HEATCNODE,Air,6
 Node,295,STORAGE_4_Z58_HEATC-FANNODE,Air,5
 Node,296,STORAGE_4_Z58_SUPPLYEQUIPMENTOUTLETNODE,Air,3
 Node,297,OFFICE_OPEN_4_2_Z59_SUPPLYINLET,Air,3
 Node,298,OFFICE_OPEN_4_2_Z59_COOLC-HEATCNODE,Air,6
 Node,299,OFFICE_OPEN_4_2_Z59_HEATC-FANNODE,Air,5
 Node,300,OFFICE_OPEN_4_2_Z59_SUPPLYEQUIPMENTOUTLETNODE,Air,3
 Node,301,OFFICE_OPEN_4_3_Z60_SUPPLYINLET,Air,3
 Node,302,OFFICE_OPEN_4_3_Z60_COOLC-HEATCNODE,Air,6
 Node,303,OFFICE_OPEN_4_3_Z60_HEATC-FANNODE,Air,5
 Node,304,OFFICE_OPEN_4_3_Z60_SUPPLYEQUIPMENTOUTLETNODE,Air,3
 Node,305,OFFICE_OPEN_4_4_Z61_SUPPLYINLET,Air,3
 Node,306,OFFICE_OPEN_4_4_Z61_COOLC-HEATCNODE,Air,6
 Node,307,OFFICE_OPEN_4_4_Z61_HEATC-FANNODE,Air,5
 Node,308,OFFICE_OPEN_4_4_Z61_SUPPLYEQUIPMENTOUTLETNODE,Air,3
 Node,309,OFFICE_OPEN_4_5_Z62_SUPPLYINLET,Air,3
 Node,310,OFFICE_OPEN_4_5_Z62_COOLC-HEATCNODE,Air,6
 Node,311,OFFICE_OPEN_4_5_Z62_HEATC-FANNODE,Air,5
 Node,312,OFFICE_OPEN_4_5_Z62_SUPPLYEQUIPMENTOUTLETNODE,Air,3
 Node,313,OFFICE_OPEN_4_6_Z63_SUPPLYINLET,Air,3
 Node,314,OFFICE_OPEN_4_6_Z63_COOLC-HEATCNODE,Air,6
 Node,315,OFFICE_OPEN_4_6_Z63_HEATC-FANNODE,Air,5
 Node,316,OFFICE_OPEN_4_6_Z63_SUPPLYEQUIPMENTOUTLETNODE,Air,3
 Node,317,OFFICE_OPEN_4_7_Z64_SUPPLYINLET,Air,3
 Node,318,OFFICE_OPEN_4_7_Z64_COOLC-HEATCNODE,Air,6
 Node,319,OFFICE_OPEN_4_7_Z64_HEATC-FANNODE,Air,5
 Node,320,OFFICE_OPEN_4_7_Z64_SUPPLYEQUIPMENTOUTLETNODE,Air,3
 Node,321,LOBBY_0 AIR NODE,Air,0
 Node,322,LOBBY_0_Z1_RETURNAIR,Air,1
 Node,323,CONFERENCE_0 AIR NODE,Air,0
 Node,324,CONFERENCE_0_Z2_RETURNAIR,Air,1
 Node,325,BREAK_ROOM_0 AIR NODE,Air,0
 Node,326,BREAK_ROOM_0_Z3_RETURNAIR,Air,1
 Node,327,MECHANICAL_0 AIR NODE,Air,0
 Node,328,MECHANICAL_0_Z4_RETURNAIR,Air,1
 Node,329,OFFICE_OPEN_0 AIR NODE,Air,0
 Node,330,OFFICE_OPEN_0_Z5_RETURNAIR,Air,1
 Node,331,OFFICE_PRIVATE_0 AIR NODE,Air,0
 Node,332,OFFICE_PRIVATE_0_Z6_RETURNAIR,Air,1
 Node,333,STORAGE_0 AIR NODE,Air,0
 Node,334,STORAGE_0_Z7_RETURNAIR,Air,1
 Node,335,OFFICE_OPEN_0_2 AIR NODE,Air,0
 Node,336,OFFICE_OPEN_0_2_Z8_RETURNAIR,Air,1
 Node,337,OFFICE_OPEN_0_3 AIR NODE,Air,0
 Node,338,OFFICE_OPEN_0_3_Z9_RETURNAIR,Air,1
 Node,339,OFFICE_OPEN_0_4 AIR NODE,Air,0
 Node,340,OFFICE_OPEN_0_4_Z10_RETURNAIR,Air,1
 Node,341,OFFICE_OPEN_0_5 AIR NODE,Air,0
 Node,342,OFFICE_OPEN_0_5_Z11_RETURNAIR,Air,1
 Node,343,OFFICE_OPEN_0_6 AIR NODE,Air,0
 Node,344,OFFICE_OPEN_0_6_Z12_RETURNAIR,Air,1
 Node,345,LOBBY_1 AIR NODE,Air,0
 Node,346,LOBBY_1_Z13_RETURNAIR,Air,1
 Node,347,CONFERENCE_1 AIR NODE,Air,0
 Node,348,CONFERENCE_1_Z14_RETURNAIR,Air,1
 Node,349,BREAK_ROOM_1 AIR NODE,Air,0
 Node,350,BREAK_ROOM_1_Z15_RETURNAIR,Air,1
 Node,351,MECHANICAL_1 AIR NODE,Air,0
 Node,352,MECHANICAL_1_Z16_RETURNAIR,Air,1
 Node,353,OFFICE_OPEN_1 AIR NODE,Air,0
 Node,354,OFFICE_OPEN_1_Z17_RETURNAIR,Air,1
 Node,355,OFFICE_PRIVATE_1 AIR NODE,Air,0
 Node,356,OFFICE_PRIVATE_1_Z18_RETURNAIR,Air,1
 Node,357,STORAGE_1 AIR NODE,Air,0
 Node,358,STORAGE_1_Z19_RETURNAIR,Air,1
 Node,359,OFFICE_OPEN_1_2 AIR NODE,Air,0
 Node,360,OFFICE_OPEN_1_2_Z20_RETURNAIR,Air,1
 Node,361,OFFICE_OPEN_1_3 AIR NODE,Air,0
 Node,362,OFFICE_OPEN_1_3_Z21_RETURNAIR,Air,1
 Node,363,OFFICE_OPEN_1_4 AIR NODE,Air,0
 Node,364,OFFICE_OPEN_1_4_Z22_RETURNAIR,Air,1
 Node,365,OFFICE_OPEN_1_5 AIR NODE,Air,0
 Node,366,OFFICE_OPEN_1_5_Z23_RETURNAIR,Air,1
 Node,367,OFFICE_OPEN_1_6 AIR NODE,Air,0
 Node,368,OFFICE_OPEN_1_6_Z24_RETURNAIR,Air,1
 Node,369,OFFICE_OPEN_1_7 AIR NODE,Air,0
 Node,370,OFFICE_OPEN_1_7_Z25_RETURNAIR,Air,1
 Node,371,LOBBY_2 AIR NODE,Air,0
 Node,372,LOBBY_2_Z26_RETURNAIR,Air,1
 Node,373,CONFERENCE_2 AIR NODE,Air,0
 Node,374,CONFERENCE_2_Z27_RETURNAIR,Air,1
 Node,375,BREAK_ROOM_2 AIR NODE,Air,0
 Node,376,BREAK_ROOM_2_Z28_RETURNAIR,Air,1
 Node,377,MECHANICAL_2 AIR NODE,Air,0
 Node,378,MECHANICAL_2_Z29_RETURNAIR,Air,1
 Node,379,OFFICE_OPEN_2 AIR NODE,Air,0
 Node,380,OFFICE_OPEN_2_Z30_RETURNAIR,Air,1
 Node,381,OFFICE_PRIVATE_2 AIR NODE,Air,0
 Node,382,OFFICE_PRIVATE_2_Z31_RETURNAIR,Air,1
 Node,383,STORAGE_2 AIR NODE,Air,0
 Node,384,STORAGE_2_Z32_RETURNAIR,Air,1
 Node,385,OFFICE_OPEN_2_2 AIR NODE,Air,0
 Node,386,OFFICE_OPEN_2_2_Z33_RETURNAIR,Air,1
 Node,387,OFFICE_OPEN_2_3 AIR NODE,Air,0
 Node,388,OFFICE_OPEN_2_3_Z34_RETURNAIR,Air,1
 Node,389,OFFICE_OPEN_2_4 AIR NODE,Air,0
 Node,390,OFFICE_OPEN_2_4_Z35_RETURNAIR,Air,1
 Node,391,OFFICE_OPEN_2_5 AIR NODE,Air,0
 Node,392,OFFICE_OPEN_2_5_Z36_RETURNAIR,Air,1
 Node,393,OFFICE_OPEN_2_6 AIR NODE,Air,0
 Node,394,OFFICE_OPEN_2_6_Z37_RETURNAIR,Air,1
 Node,395,OFFICE_OPEN_2_7 AIR NODE,Air,0
 Node,396,OFFICE_OPEN_2_7_Z38_RETURNAIR,Air,1
 Node,397,LOBBY_3 AIR NODE,Air,0
 Node,398,LOBBY_3_Z39_RETURNAIR,Air,1
 Node,399,CONFERENCE_3 AIR NODE,Air,0
 Node,400,CONFERENCE_3_Z40_RETURNAIR,Air,1
 Node,401,BREAK_ROOM_3 AIR NODE,Air,0
 Node,402,BREAK_ROOM_3_Z41_RETURNAIR,Air,1
 Node,403,MECHANICAL_3 AIR NODE,Air,0
 Node,404,MECHANICAL_3_Z42_RETURNAIR,Air,1
 Node,405,OFFICE_OPEN_3 AIR NODE,Air,0
 Node,406,OFFICE_OPEN_3_Z43_RETURNAIR,Air,1
 Node,407,OFFICE_PRIVATE_3 AIR NODE,Air,0
 Node,408,OFFICE_PRIVATE_3_Z44_RETURNAIR,Air,1
 Node,409,STORAGE_3 AIR NODE,Air,0
 Node,410,STORAGE_3_Z45_RETURNAIR,Air,1
 Node,411,OFFICE_OPEN_3_2 AIR NODE,Air,0
 Node,412,OFFICE_OPEN_3_2_Z46_RETURNAIR,Air,1
 Node,413,OFFICE_OPEN_3_3 AIR NODE,Air,0
 Node,414,OFFICE_OPEN_3_3_Z47_RETURNAIR,Air,1
 Node,415,OFFICE_OPEN_3_4 AIR NODE,Air,0
 Node,416,OFFICE_OPEN_3_4_Z48_RETURNAIR,Air,1
 Node,417,OFFICE_OPEN_3_5 AIR NODE,Air,0
 Node,418,OFFICE_OPEN_3_5_Z49_RETURNAIR,Air,1
 Node,419,OFFICE_OPEN_3_6 AIR NODE,Air,0
 Node,420,OFFICE_OPEN_3_6_Z50_RETURNAIR,Air,1
 Node,421,OFFICE_OPEN_3_7 AIR NODE,Air,0
 Node,422,OFFICE_OPEN_3_7_Z51_RETURNAIR,Air,1
 Node,423,LOBBY_4 AIR NODE,Air,0
 Node,424,LOBBY_4_Z52_RETURNAIR,Air,1
 Node,425,CONFERENCE_4 AIR NODE,Air,0
 Node,426,CONFERENCE_4_Z53_RETURNAIR,Air,1
 Node,427,BREAK_ROOM_4 AIR NODE,Air,0
 Node,428,BREAK_ROOM_4_Z54_RETURNAIR,Air,1
 Node,429,MECHANICAL_4 AIR NODE,Air,0
 Node,430,MECHANICAL_4_Z55_RETURNAIR,Air,1
 Node,431,OFFICE_OPEN_4 AIR NODE,Air,0
 Node,432,OFFICE_OPEN_4_Z56_RETURNAIR,Air,1
 Node,433,OFFICE_PRIVATE_4 AIR NODE,Air,0
 Node,434,OFFICE_PRIVATE_4_Z57_RETURNAIR,Air,1
 Node,435,STORAGE_4 AIR NODE,Air,0
 Node,436,STORAGE_4_Z58_RETURNAIR,Air,1
 Node,437,OFFICE_OPEN_4_2 AIR NODE,Air,0
 Node,438,OFFICE_OPEN_4_2_Z59_RETURNAIR,Air,1
 Node,439,OFFICE_OPEN_4_3 AIR NODE,Air,0
 Node,440,OFFICE_OPEN_4_3_Z60_RETURNAIR,Air,1
 Node,441,OFFICE_OPEN_4_4 AIR NODE,Air,0
 Node,442,OFFICE_OPEN_4_4_Z61_RETURNAIR,Air,1
 Node,443,OFFICE_OPEN_4_5 AIR NODE,Air,0
 Node,444,OFFICE_OPEN_4_5_Z62_RETURNAIR,Air,1
 Node,445,OFFICE_OPEN_4_6 AIR NODE,Air,0
 Node,446,OFFICE_OPEN_4_6_Z63_RETURNAIR,Air,1
 Node,447,OFFICE_OPEN_4_7 AIR NODE,Air,0
 Node,448,OFFICE_OPEN_4_7_Z64_RETURNAIR,Air,1
 Node,449,LOBBY_0_Z1_ZONEEQUIPMENTINLET,Air,2
 Node,450,CONFERENCE_0_Z2_ZONEEQUIPMENTINLET,Air,2
 Node,451,BREAK_ROOM_0_Z3_ZONEEQUIPMENTINLET,Air,2
 Node,452,MECHANICAL_0_Z4_ZONEEQUIPMENTINLET,Air,2
 Node,453,OFFICE_OPEN_0_Z5_ZONEEQUIPMENTINLET,Air,2
 Node,454,OFFICE_PRIVATE_0_Z6_ZONEEQUIPMENTINLET,Air,2
 Node,455,STORAGE_0_Z7_ZONEEQUIPMENTINLET,Air,2
 Node,456,OFFICE_OPEN_0_2_Z8_ZONEEQUIPMENTINLET,Air,2
 Node,457,OFFICE_OPEN_0_3_Z9_ZONEEQUIPMENTINLET,Air,2
 Node,458,OFFICE_OPEN_0_4_Z10_ZONEEQUIPMENTINLET,Air,2
 Node,459,OFFICE_OPEN_0_5_Z11_ZONEEQUIPMENTINLET,Air,2
 Node,460,OFFICE_OPEN_0_6_Z12_ZONEEQUIPMENTINLET,Air,2
 Node,461,LOBBY_1_Z13_ZONEEQUIPMENTINLET,Air,2
 Node,462,CONFERENCE_1_Z14_ZONEEQUIPMENTINLET,Air,2
 Node,463,BREAK_ROOM_1_Z15_ZONEEQUIPMENTINLET,Air,2
 Node,464,MECHANICAL_1_Z16_ZONEEQUIPMENTINLET,Air,2
 Node,465,OFFICE_OPEN_1_Z17_ZONEEQUIPMENTINLET,Air,2
 Node,466,OFFICE_PRIVATE_1_Z18_ZONEEQUIPMENTINLET,Air,2
 Node,467,STORAGE_1_Z19_ZONEEQUIPMENTINLET,Air,2
 Node,468,OFFICE_OPEN_1_2_Z20_ZONEEQUIPMENTINLET,Air,2
 Node,469,OFFICE_OPEN_1_3_Z21_ZONEEQUIPMENTINLET,Air,2
 Node,470,OFFICE_OPEN_1_4_Z22_ZONEEQUIPMENTINLET,Air,2
 Node,471,OFFICE_OPEN_1_5_Z23_ZONEEQUIPMENTINLET,Air,2
 Node,472,OFFICE_OPEN_1_6_Z24_ZONEEQUIPMENTINLET,Air,2
 Node,473,OFFICE_OPEN_1_7_Z25_ZONEEQUIPMENTINLET,Air,2
 Node,474,LOBBY_2_Z26_ZONEEQUIPMENTINLET,Air,2
 Node,475,CONFERENCE_2_Z27_ZONEEQUIPMENTINLET,Air,2
 Node,476,BREAK_ROOM_2_Z28_ZONEEQUIPMENTINLET,Air,2
 Node,477,MECHANICAL_2_Z29_ZONEEQUIPMENTINLET,Air,2
 Node,478,OFFICE_OPEN_2_Z30_ZONEEQUIPMENTINLET,Air,2
 Node,479,OFFICE_PRIVATE_2_Z31_ZONEEQUIPMENTINLET,Air,2
 Node,480,STORAGE_2_Z32_ZONEEQUIPMENTINLET,Air,2
 Node,481,OFFICE_OPEN_2_2_Z33_ZONEEQUIPMENTINLET,Air,2
 Node,482,OFFICE_OPEN_2_3_Z34_ZONEEQUIPMENTINLET,Air,2
 Node,483,OFFICE_OPEN_2_4_Z35_ZONEEQUIPMENTINLET,Air,2
 Node,484,OFFICE_OPEN_2_5_Z36_ZONEEQUIPMENTINLET,Air,2
 Node,485,OFFICE_OPEN_2_6_Z37_ZONEEQUIPMENTINLET,Air,2
 Node,486,OFFICE_OPEN_2_7_Z38_ZONEEQUIPMENTINLET,Air,2
 Node,487,LOBBY_3_Z39_ZONEEQUIPMENTINLET,Air,2
 Node,488,CONFERENCE_3_Z40_ZONEEQUIPMENTINLET,Air,2
 Node,489,BREAK_ROOM_3_Z41_ZONEEQUIPMENTINLET,Air,2
 Node,490,MECHANICAL_3_Z42_ZONEEQUIPMENTINLET,Air,2
 Node,491,OFFICE_OPEN_3_Z43_ZONEEQUIPMENTINLET,Air,2
 Node,492,OFFICE_PRIVATE_3_Z44_ZONEEQUIPMENTINLET,Air,2
 Node,493,STORAGE_3_Z45_ZONEEQUIPMENTINLET,Air,2
 Node,494,OFFICE_OPEN_3_2_Z46_ZONEEQUIPMENTINLET,Air,2
 Node,495,OFFICE_OPEN_3_3_Z47_ZONEEQUIPMENTINLET,Air,2
 Node,496,OFFICE_OPEN_3_4_Z48_ZONEEQUIPMENTINLET,Air,2
 Node,497,OFFICE_OPEN_3_5_Z49_ZONEEQUIPMENTINLET,Air,2
 Node,498,OFFICE_OPEN_3_6_Z50_ZONEEQUIPMENTINLET,Air,2
 Node,499,OFFICE_OPEN_3_7_Z51_ZONEEQUIPMENTINLET,Air,2
 Node,500,LOBBY_4_Z52_ZONEEQUIPMENTINLET,Air,2
 Node,501,CONFERENCE_4_Z53_ZONEEQUIPMENTINLET,Air,2
 Node,502,BREAK_ROOM_4_Z54_ZONEEQUIPMENTINLET,Air,2
 Node,503,MECHANICAL_4_Z55_ZONEEQUIPMENTINLET,Air,2
 Node,504,OFFICE_OPEN_4_Z56_ZONEEQUIPMENTINLET,Air,2
 Node,505,OFFICE_PRIVATE_4_Z57_ZONEEQUIPMENTINLET,Air,2
 Node,506,STORAGE_4_Z58_ZONEEQUIPMENTINLET,Air,2
 Node,507,OFFICE_OPEN_4_2_Z59_ZONEEQUIPMENTINLET,Air,2
 Node,508,OFFICE_OPEN_4_3_Z60_ZONEEQUIPMENTINLET,Air,2
 Node,509,OFFICE_OPEN_4_4_Z61_ZONEEQUIPMENTINLET,Air,2
 Node,510,OFFICE_OPEN_4_5_Z62_ZONEEQUIPMENTINLET,Air,2
 Node,511,OFFICE_OPEN_4_6_Z63_ZONEEQUIPMENTINLET,Air,2
 Node,512,OFFICE_OPEN_4_7_Z64_ZONEEQUIPMENTINLET,Air,2
 Node,513,LOBBY_0_Z1_ZONEEQUIPMENTOUTLETNODE,Air,2
 Node,514,CONFERENCE_0_Z2_ZONEEQUIPMENTOUTLETNODE,Air,2
 Node,515,BREAK_ROOM_0_Z3_ZONEEQUIPMENTOUTLETNODE,Air,2
 Node,516,MECHANICAL_0_Z4_ZONEEQUIPMENTOUTLETNODE,Air,2
 Node,517,OFFICE_OPEN_0_Z5_ZONEEQUIPMENTOUTLETNODE,Air,2
 Node,518,OFFICE_PRIVATE_0_Z6_ZONEEQUIPMENTOUTLETNODE,Air,2
 Node,519,STORAGE_0_Z7_ZONEEQUIPMENTOUTLETNODE,Air,2
 Node,520,OFFICE_OPEN_0_2_Z8_ZONEEQUIPMENTOUTLETNODE,Air,2
 Node,521,OFFICE_OPEN_0_3_Z9_ZONEEQUIPMENTOUTLETNODE,Air,2
 Node,522,OFFICE_OPEN_0_4_Z10_ZONEEQUIPMENTOUTLETNODE,Air,2
 Node,523,OFFICE_OPEN_0_5_Z11_ZONEEQUIPMENTOUTLETNODE,Air,2
 Node,524,OFFICE_OPEN_0_6_Z12_ZONEEQUIPMENTOUTLETNODE,Air,2
 Node,525,LOBBY_1_Z13_ZONEEQUIPMENTOUTLETNODE,Air,2
 Node,526,CONFERENCE_1_Z14_ZONEEQUIPMENTOUTLETNODE,Air,2
 Node,527,BREAK_ROOM_1_Z15_ZONEEQUIPMENTOUTLETNODE,Air,2
 Node,528,MECHANICAL_1_Z16_ZONEEQUIPMENTOUTLETNODE,Air,2
 Node,529,OFFICE_OPEN_1_Z17_ZONEEQUIPMENTOUTLETNODE,Air,2
 Node,530,OFFICE_PRIVATE_1_Z18_ZONEEQUIPMENTOUTLETNODE,Air,2
 Node,531,STORAGE_1_Z19_ZONEEQUIPMENTOUTLETNODE,Air,2
 Node,532,OFFICE_OPEN_1_2_Z20_ZONEEQUIPMENTOUTLETNODE,Air,2
 Node,533,OFFICE_OPEN_1_3_Z21_ZONEEQUIPMENTOUTLETNODE,Air,2
 Node,534,OFFICE_OPEN_1_4_Z22_ZONEEQUIPMENTOUTLETNODE,Air,2
 Node,535,OFFICE_OPEN_1_5_Z23_ZONEEQUIPMENTOUTLETNODE,Air,2
 Node,536,OFFICE_OPEN_1_6_Z24_ZONEEQUIPMENTOUTLETNODE,Air,2
 Node,537,OFFICE_OPEN_1_7_Z25_ZONEEQUIPMENTOUTLETNODE,Air,2
 Node,538,LOBBY_2_Z26_ZONEEQUIPMENTOUTLETNODE,Air,2
 Node,539,CONFERENCE_2_Z27_ZONEEQUIPMENTOUTLETNODE,Air,2
 Node,540,BREAK_ROOM_2_Z28_ZONEEQUIPMENTOUTLETNODE,Air,2
 Node,541,MECHANICAL_2_Z29_ZONEEQUIPMENTOUTLETNODE,Air,2
 Node,542,OFFICE_OPEN_2_Z30_ZONEEQUIPMENTOUTLETNODE,Air,2
 Node,543,OFFICE_PRIVATE_2_Z31_ZONEEQUIPMENTOUTLETNODE,Air,2
 Node,544,STORAGE_2_Z32_ZONEEQUIPMENTOUTLETNODE,Air,2
 Node,545,OFFICE_OPEN_2_2_Z33_ZONEEQUIPMENTOUTLETNODE,Air,2
 Node,546,OFFICE_OPEN_2_3_Z34_ZONEEQUIPMENTOUTLETNODE,Air,2
 Node,547,OFFICE_OPEN_2_4_Z35_ZONEEQUIPMENTOUTLETNODE,Air,2
 Node,548,OFFICE_OPEN_2_5_Z36_ZONEEQUIPMENTOUTLETNODE,Air,2
 Node,549,OFFICE_OPEN_2_6_Z37_ZONEEQUIPMENTOUTLETNODE,Air,2
 Node,550,OFFICE_OPEN_2_7_Z38_ZONEEQUIPMENTOUTLETNODE,Air,2
 Node,551,LOBBY_3_Z39_ZONEEQUIPMENTOUTLETNODE,Air,2
 Node,552,CONFERENCE_3_Z40_ZONEEQUIPMENTOUTLETNODE,Air,2
 Node,553,BREAK_ROOM_3_Z41_ZONEEQUIPMENTOUTLETNODE,Air,2
 Node,554,MECHANICAL_3_Z42_ZONEEQUIPMENTOUTLETNODE,Air,2
 Node,555,OFFICE_OPEN_3_Z43_ZONEEQUIPMENTOUTLETNODE,Air,2
 Node,556,OFFICE_PRIVATE_3_Z44_ZONEEQUIPMENTOUTLETNODE,Air,2
 Node,557,STORAGE_3_Z45_ZONEEQUIPMENTOUTLETNODE,Air,2
 Node,558,OFFICE_OPEN_3_2_Z46_ZONEEQUIPMENTOUTLETNODE,Air,2
 Node,559,OFFICE_OPEN_3_3_Z47_ZONEEQUIPMENTOUTLETNODE,Air,2
 Node,560,OFFICE_OPEN_3_4_Z48_ZONEEQUIPMENTOUTLETNODE,Air,2
 Node,561,OFFICE_OPEN_3_5_Z49_ZONEEQUIPMENTOUTLETNODE,Air,2
 Node,562,OFFICE_OPEN_3_6_Z50_ZONEEQUIPMENTOUTLETNODE,Air,2
 Node,563,OFFICE_OPEN_3_7_Z51_ZONEEQUIPMENTOUTLETNODE,Air,2
 Node,564,LOBBY_4_Z52_ZONEEQUIPMENTOUTLETNODE,Air,2
 Node,565,CONFERENCE_4_Z53_ZONEEQUIPMENTOUTLETNODE,Air,2
 Node,566,BREAK_ROOM_4_Z54_ZONEEQUIPMENTOUTLETNODE,Air,2
 Node,567,MECHANICAL_4_Z55_ZONEEQUIPMENTOUTLETNODE,Air,2
 Node,568,OFFICE_OPEN_4_Z56_ZONEEQUIPMENTOUTLETNODE,Air,2
 Node,569,OFFICE_PRIVATE_4_Z57_ZONEEQUIPMENTOUTLETNODE,Air,2
 Node,570,STORAGE_4_Z58_ZONEEQUIPMENTOUTLETNODE,Air,2
 Node,571,OFFICE_OPEN_4_2_Z59_ZONEEQUIPMENTOUTLETNODE,Air,2
 Node,572,OFFICE_OPEN_4_3_Z60_ZONEEQUIPMENTOUTLETNODE,Air,2
 Node,573,OFFICE_OPEN_4_4_Z61_ZONEEQUIPMENTOUTLETNODE,Air,2
 Node,574,OFFICE_OPEN_4_5_Z62_ZONEEQUIPMENTOUTLETNODE,Air,2
 Node,575,OFFICE_OPEN_4_6_Z63_ZONEEQUIPMENTOUTLETNODE,Air,2
 Node,576,OFFICE_OPEN_4_7_Z64_ZONEEQUIPMENTOUTLETNODE,Air,2
 Node,577,LOBBY_0_Z1_TERMINALINLET,Air,1
 Node,578,CONFERENCE_0_Z2_TERMINALINLET,Air,1
 Node,579,BREAK_ROOM_0_Z3_TERMINALINLET,Air,1
 Node,580,MECHANICAL_0_Z4_TERMINALINLET,Air,1
 Node,581,OFFICE_OPEN_0_Z5_TERMINALINLET,Air,1
 Node,582,OFFICE_PRIVATE_0_Z6_TERMINALINLET,Air,1
 Node,583,STORAGE_0_Z7_TERMINALINLET,Air,1
 Node,584,OFFICE_OPEN_0_2_Z8_TERMINALINLET,Air,1
 Node,585,OFFICE_OPEN_0_3_Z9_TERMINALINLET,Air,1
 Node,586,OFFICE_OPEN_0_4_Z10_TERMINALINLET,Air,1
 Node,587,OFFICE_OPEN_0_5_Z11_TERMINALINLET,Air,1
 Node,588,OFFICE_OPEN_0_6_Z12_TERMINALINLET,Air,1
 Node,589,LOBBY_1_Z13_TERMINALINLET,Air,1
 Node,590,CONFERENCE_1_Z14_TERMINALINLET,Air,1
 Node,591,BREAK_ROOM_1_Z15_TERMINALINLET,Air,1
 Node,592,MECHANICAL_1_Z16_TERMINALINLET,Air,1
 Node,593,OFFICE_OPEN_1_Z17_TERMINALINLET,Air,1
 Node,594,OFFICE_PRIVATE_1_Z18_TERMINALINLET,Air,1
 Node,595,STORAGE_1_Z19_TERMINALINLET,Air,1
 Node,596,OFFICE_OPEN_1_2_Z20_TERMINALINLET,Air,1
 Node,597,OFFICE_OPEN_1_3_Z21_TERMINALINLET,Air,1
 Node,598,OFFICE_OPEN_1_4_Z22_TERMINALINLET,Air,1
 Node,599,OFFICE_OPEN_1_5_Z23_TERMINALINLET,Air,1
 Node,600,OFFICE_OPEN_1_6_Z24_TERMINALINLET,Air,1
 Node,601,OFFICE_OPEN_1_7_Z25_TERMINALINLET,Air,1
 Node,602,LOBBY_2_Z26_TERMINALINLET,Air,1
 Node,603,CONFERENCE_2_Z27_TERMINALINLET,Air,1
 Node,604,BREAK_ROOM_2_Z28_TERMINALINLET,Air,1
 Node,605,MECHANICAL_2_Z29_TERMINALINLET,Air,1
 Node,606,OFFICE_OPEN_2_Z30_TERMINALINLET,Air,1
 Node,607,OFFICE_PRIVATE_2_Z31_TERMINALINLET,Air,1
 Node,608,STORAGE_2_Z32_TERMINALINLET,Air,1
 Node,609,OFFICE_OPEN_2_2_Z33_TERMINALINLET,Air,1
 Node,610,OFFICE_OPEN_2_3_Z34_TERMINALINLET,Air,1
 Node,611,OFFICE_OPEN_2_4_Z35_TERMINALINLET,Air,1
 Node,612,OFFICE_OPEN_2_5_Z36_TERMINALINLET,Air,1
 Node,613,OFFICE_OPEN_2_6_Z37_TERMINALINLET,Air,1
 Node,614,OFFICE_OPEN_2_7_Z38_TERMINALINLET,Air,1
 Node,615,LOBBY_3_Z39_TERMINALINLET,Air,1
 Node,616,CONFERENCE_3_Z40_TERMINALINLET,Air,1
 Node,617,BREAK_ROOM_3_Z41_TERMINALINLET,Air,1
 Node,618,MECHANICAL_3_Z42_TERMINALINLET,Air,1
 Node,619,OFFICE_OPEN_3_Z43_TERMINALINLET,Air,1
 Node,620,OFFICE_PRIVATE_3_Z44_TERMINALINLET,Air,1
 Node,621,STORAGE_3_Z45_TERMINALINLET,Air,1
 Node,622,OFFICE_OPEN_3_2_Z46_TERMINALINLET,Air,1
 Node,623,OFFICE_OPEN_3_3_Z47_TERMINALINLET,Air,1
 Node,624,OFFICE_OPEN_3_4_Z48_TERMINALINLET,Air,1
 Node,625,OFFICE_OPEN_3_5_Z49_TERMINALINLET,Air,1
 Node,626,OFFICE_OPEN_3_6_Z50_TERMINALINLET,Air,1
 Node,627,OFFICE_OPEN_3_7_Z51_TERMINALINLET,Air,1
 Node,628,LOBBY_4_Z52_TERMINALINLET,Air,1
 Node,629,CONFERENCE_4_Z53_TERMINALINLET,Air,1
 Node,630,BREAK_ROOM_4_Z54_TERMINALINLET,Air,1
 Node,631,MECHANICAL_4_Z55_TERMINALINLET,Air,1
 Node,632,OFFICE_OPEN_4_Z56_TERMINALINLET,Air,1
 Node,633,OFFICE_PRIVATE_4_Z57_TERMINALINLET,Air,1
 Node,634,STORAGE_4_Z58_TERMINALINLET,Air,1
 Node,635,OFFICE_OPEN_4_2_Z59_TERMINALINLET,Air,1
 Node,636,OFFICE_OPEN_4_3_Z60_TERMINALINLET,Air,1
 Node,637,OFFICE_OPEN_4_4_Z61_TERMINALINLET,Air,1
 Node,638,OFFICE_OPEN_4_5_Z62_TERMINALINLET,Air,1
 Node,639,OFFICE_OPEN_4_6_Z63_TERMINALINLET,Air,1
 Node,640,OFFICE_OPEN_4_7_Z64_TERMINALINLET,Air,1
 Node,641,LOBBY_0_Z1_TERMINALOUTLET,Air,1
 Node,642,CONFERENCE_0_Z2_TERMINALOUTLET,Air,1
 Node,643,BREAK_ROOM_0_Z3_TERMINALOUTLET,Air,1
 Node,644,MECHANICAL_0_Z4_TERMINALOUTLET,Air,1
 Node,645,OFFICE_OPEN_0_Z5_TERMINALOUTLET,Air,1
 Node,646,OFFICE_PRIVATE_0_Z6_TERMINALOUTLET,Air,1
 Node,647,STORAGE_0_Z7_TERMINALOUTLET,Air,1
 Node,648,OFFICE_OPEN_0_2_Z8_TERMINALOUTLET,Air,1
 Node,649,OFFICE_OPEN_0_3_Z9_TERMINALOUTLET,Air,1
 Node,650,OFFICE_OPEN_0_4_Z10_TERMINALOUTLET,Air,1
 Node,651,OFFICE_OPEN_0_5_Z11_TERMINALOUTLET,Air,1
 Node,652,OFFICE_OPEN_0_6_Z12_TERMINALOUTLET,Air,1
 Node,653,LOBBY_1_Z13_TERMINALOUTLET,Air,1
 Node,654,CONFERENCE_1_Z14_TERMINALOUTLET,Air,1
 Node,655,BREAK_ROOM_1_Z15_TERMINALOUTLET,Air,1
 Node,656,MECHANICAL_1_Z16_TERMINALOUTLET,Air,1
 Node,657,OFFICE_OPEN_1_Z17_TERMINALOUTLET,Air,1
 Node,658,OFFICE_PRIVATE_1_Z18_TERMINALOUTLET,Air,1
 Node,659,STORAGE_1_Z19_TERMINALOUTLET,Air,1
 Node,660,OFFICE_OPEN_1_2_Z20_TERMINALOUTLET,Air,1
 Node,661,OFFICE_OPEN_1_3_Z21_TERMINALOUTLET,Air,1
 Node,662,OFFICE_OPEN_1_4_Z22_TERMINALOUTLET,Air,1
 Node,663,OFFICE_OPEN_1_5_Z23_TERMINALOUTLET,Air,1
 Node,664,OFFICE_OPEN_1_6_Z24_TERMINALOUTLET,Air,1
 Node,665,OFFICE_OPEN_1_7_Z25_TERMINALOUTLET,Air,1
 Node,666,LOBBY_2_Z26_TERMINALOUTLET,Air,1
 Node,667,CONFERENCE_2_Z27_TERMINALOUTLET,Air,1
 Node,668,BREAK_ROOM_2_Z28_TERMINALOUTLET,Air,1
 Node,669,MECHANICAL_2_Z29_TERMINALOUTLET,Air,1
 Node,670,OFFICE_OPEN_2_Z30_TERMINALOUTLET,Air,1
 Node,671,OFFICE_PRIVATE_2_Z31_TERMINALOUTLET,Air,1
 Node,672,STORAGE_2_Z32_TERMINALOUTLET,Air,1
 Node,673,OFFICE_OPEN_2_2_Z33_TERMINALOUTLET,Air,1
 Node,674,OFFICE_OPEN_2_3_Z34_TERMINALOUTLET,Air,1
 Node,675,OFFICE_OPEN_2_4_Z35_TERMINALOUTLET,Air,1
 Node,676,OFFICE_OPEN_2_5_Z36_TERMINALOUTLET,Air,1
 Node,677,OFFICE_OPEN_2_6_Z37_TERMINALOUTLET,Air,1
 Node,678,OFFICE_OPEN_2_7_Z38_TERMINALOUTLET,Air,1
 Node,679,LOBBY_3_Z39_TERMINALOUTLET,Air,1
 Node,680,CONFERENCE_3_Z40_TERMINALOUTLET,Air,1
 Node,681,BREAK_ROOM_3_Z41_TERMINALOUTLET,Air,1
 Node,682,MECHANICAL_3_Z42_TERMINALOUTLET,Air,1
 Node,683,OFFICE_OPEN_3_Z43_TERMINALOUTLET,Air,1
 Node,684,OFFICE_PRIVATE_3_Z44_TERMINALOUTLET,Air,1
 Node,685,STORAGE_3_Z45_TERMINALOUTLET,Air,1
 Node,686,OFFICE_OPEN_3_2_Z46_TERMINALOUTLET,Air,1
 Node,687,OFFICE_OPEN_3_3_Z47_TERMINALOUTLET,Air,1
 Node,688,OFFICE_OPEN_3_4_Z48_TERMINALOUTLET,Air,1
 Node,689,OFFICE_OPEN_3_5_Z49_TERMINALOUTLET,Air,1
 Node,690,OFFICE_OPEN_3_6_Z50_TERMINALOUTLET,Air,1
 Node,691,OFFICE_OPEN_3_7_Z51_TERMINALOUTLET,Air,1
 Node,692,LOBBY_4_Z52_TERMINALOUTLET,Air,1
 Node,693,CONFERENCE_4_Z53_TERMINALOUTLET,Air,1
 Node,694,BREAK_ROOM_4_Z54_TERMINALOUTLET,Air,1
 Node,695,MECHANICAL_4_Z55_TERMINALOUTLET,Air,1
 Node,696,OFFICE_OPEN_4_Z56_TERMINALOUTLET,Air,1
 Node,697,OFFICE_PRIVATE_4_Z57_TERMINALOUTLET,Air,1
 Node,698,STORAGE_4_Z58_TERMINALOUTLET,Air,1
 Node,699,OFFICE_OPEN_4_2_Z59_TERMINALOUTLET,Air,1
 Node,700,OFFICE_OPEN_4_3_Z60_TERMINALOUTLET,Air,1
 Node,701,OFFICE_OPEN_4_4_Z61_TERMINALOUTLET,Air,1
 Node,702,OFFICE_OPEN_4_5_Z62_TERMINALOUTLET,Air,1
 Node,703,OFFICE_OPEN_4_6_Z63_TERMINALOUTLET,Air,1
 Node,704,OFFICE_OPEN_4_7_Z64_TERMINALOUTLET,Air,1
! ===============================================================
! Suspicious nodes have 0 references.  It is normal for some nodes, however.
! Listing nodes with 0 references (culled from previous list):
! <Suspicious Node>,<NodeNumber>,<Node Name>,<Node Fluid Type>,<# Times Node Referenced After Definition>
 Suspicious Node,321,LOBBY_0 AIR NODE,Air,0
 Suspicious Node,323,CONFERENCE_0 AIR NODE,Air,0
 Suspicious Node,325,BREAK_ROOM_0 AIR NODE,Air,0
 Suspicious Node,327,MECHANICAL_0 AIR NODE,Air,0
 Suspicious Node,329,OFFICE_OPEN_0 AIR NODE,Air,0
 Suspicious Node,331,OFFICE_PRIVATE_0 AIR NODE,Air,0
 Suspicious Node,333,STORAGE_0 AIR NODE,Air,0
 Suspicious Node,335,OFFICE_OPEN_0_2 AIR NODE,Air,0
 Suspicious Node,337,OFFICE_OPEN_0_3 AIR NODE,Air,0
 Suspicious Node,339,OFFICE_OPEN_0_4 AIR NODE,Air,0
 Suspicious Node,341,OFFICE_OPEN_0_5 AIR NODE,Air,0
 Suspicious Node,343,OFFICE_OPEN_0_6 AIR NODE,Air,0
 Suspicious Node,345,LOBBY_1 AIR NODE,Air,0
 Suspicious Node,347,CONFERENCE_1 AIR NODE,Air,0
 Suspicious Node,349,BREAK_ROOM_1 AIR NODE,Air,0
 Suspicious Node,351,MECHANICAL_1 AIR NODE,Air,0
 Suspicious Node,353,OFFICE_OPEN_1 AIR NODE,Air,0
 Suspicious Node,355,OFFICE_PRIVATE_1 AIR NODE,Air,0
 Suspicious Node,357,STORAGE_1 AIR NODE,Air,0
 Suspicious Node,359,OFFICE_OPEN_1_2 AIR NODE,Air,0
 Suspicious Node,361,OFFICE_OPEN_1_3 AIR NODE,Air,0
 Suspicious Node,363,OFFICE_OPEN_1_4 AIR NODE,Air,0
 Suspicious Node,365,OFFICE_OPEN_1_5 AIR NODE,Air,0
 Suspicious Node,367,OFFICE_OPEN_1_6 AIR NODE,Air,0
 Suspicious Node,369,OFFICE_OPEN_1_7 AIR NODE,Air,0
 Suspicious Node,371,LOBBY_2 AIR NODE,Air,0
 Suspicious Node,373,CONFERENCE_2 AIR NODE,Air,0
 Suspicious Node,375,BREAK_ROOM_2 AIR NODE,Air,0
 Suspicious Node,377,MECHANICAL_2 AIR NODE,Air,0
 Suspicious Node,379,OFFICE_OPEN_2 AIR NODE,Air,0
 Suspicious Node,381,OFFICE_PRIVATE_2 AIR NODE,Air,0
 Suspicious Node,383,STORAGE_2 AIR NODE,Air,0
 Suspicious Node,385,OFFICE_OPEN_2_2 AIR NODE,Air,0
 Suspicious Node,387,OFFICE_OPEN_2_3 AIR NODE,Air,0
 Suspicious Node,389,OFFICE_OPEN_2_4 AIR NODE,Air,0
 Suspicious Node,391,OFFICE_OPEN_2_5 AIR NODE,Air,0
 Suspicious Node,393,OFFICE_OPEN_2_6 AIR NODE,Air,0
 Suspicious Node,395,OFFICE_OPEN_2_7 AIR NODE,Air,0
 Suspicious Node,397,LOBBY_3 AIR NODE,Air,0
 Suspicious Node,399,CONFERENCE_3 AIR NODE,Air,0
 Suspicious Node,401,BREAK_ROOM_3 AIR NODE,Air,0
 Suspicious Node,403,MECHANICAL_3 AIR NODE,Air,0
 Suspicious Node,405,OFFICE_OPEN_3 AIR NODE,Air,0
 Suspicious Node,407,OFFICE_PRIVATE_3 AIR NODE,Air,0
 Suspicious Node,409,STORAGE_3 AIR NODE,Air,0
 Suspicious Node,411,OFFICE_OPEN_3_2 AIR NODE,Air,0
 Suspicious Node,413,OFFICE_OPEN_3_3 AIR NODE,Air,0
 Suspicious Node,415,OFFICE_OPEN_3_4 AIR NODE,Air,0
 Suspicious Node,417,OFFICE_OPEN_3_5 AIR NODE,Air,0
 Suspicious Node,419,OFFICE_OPEN_3_6 AIR NODE,Air,0
 Suspicious Node,421,OFFICE_OPEN_3_7 AIR NODE,Air,0
 Suspicious Node,423,LOBBY_4 AIR NODE,Air,0
 Suspicious Node,425,CONFERENCE_4 AIR NODE,Air,0
 Suspicious Node,427,BREAK_ROOM_4 AIR NODE,Air,0
 Suspicious Node,429,MECHANICAL_4 AIR NODE,Air,0
 Suspicious Node,431,OFFICE_OPEN_4 AIR NODE,Air,0
 Suspicious Node,433,OFFICE_PRIVATE_4 AIR NODE,Air,0
 Suspicious Node,435,STORAGE_4 AIR NODE,Air,0
 Suspicious Node,437,OFFICE_OPEN_4_2 AIR NODE,Air,0
 Suspicious Node,439,OFFICE_OPEN_4_3 AIR NODE,Air,0
 Suspicious Node,441,OFFICE_OPEN_4_4 AIR NODE,Air,0
 Suspicious Node,443,OFFICE_OPEN_4_5 AIR NODE,Air,0
 Suspicious Node,445,OFFICE_OPEN_4_6 AIR NODE,Air,0
 Suspicious Node,447,OFFICE_OPEN_4_7 AIR NODE,Air,0
! ===============================================================
! <#Branch Lists>,<Number of Branch Lists>
 #Branch Lists,64
! <Branch List>,<Branch List Count>,<Branch List Name>,<Loop Name>,<Loop Type>,<Number of Branches>
! <Branch>,<Branch Count>,<Branch Name>,<Loop Name>,<Loop Type>,<Branch Inlet Node Name>,<Branch Outlet Node Name>
 Branch List,1,LOBBY_0_Z1_BRANCHLIST,LOBBY_0_Z1_AIRLOOP,Air,1
   Branch,1,LOBBY_0_Z1_MAINBRANCH,LOBBY_0_Z1_AIRLOOP,Air,LOBBY_0_Z1_SUPPLYINLET,LOBBY_0_Z1_SUPPLYEQUIPMENTOUTLETNODE
 Branch List,2,CONFERENCE_0_Z2_BRANCHLIST,CONFERENCE_0_Z2_AIRLOOP,Air,1
   Branch,1,CONFERENCE_0_Z2_MAINBRANCH,CONFERENCE_0_Z2_AIRLOOP,Air,CONFERENCE_0_Z2_SUPPLYINLET,CONFERENCE_0_Z2_SUPPLYEQUIPMENTOUTLETNODE
 Branch List,3,BREAK_ROOM_0_Z3_BRANCHLIST,BREAK_ROOM_0_Z3_AIRLOOP,Air,1
   Branch,1,BREAK_ROOM_0_Z3_MAINBRANCH,BREAK_ROOM_0_Z3_AIRLOOP,Air,BREAK_ROOM_0_Z3_SUPPLYINLET,BREAK_ROOM_0_Z3_SUPPLYEQUIPMENTOUTLETNODE
 Branch List,4,MECHANICAL_0_Z4_BRANCHLIST,MECHANICAL_0_Z4_AIRLOOP,Air,1
   Branch,1,MECHANICAL_0_Z4_MAINBRANCH,MECHANICAL_0_Z4_AIRLOOP,Air,MECHANICAL_0_Z4_SUPPLYINLET,MECHANICAL_0_Z4_SUPPLYEQUIPMENTOUTLETNODE
 Branch List,5,OFFICE_OPEN_0_Z5_BRANCHLIST,OFFICE_OPEN_0_Z5_AIRLOOP,Air,1
   Branch,1,OFFICE_OPEN_0_Z5_MAINBRANCH,OFFICE_OPEN_0_Z5_AIRLOOP,Air,OFFICE_OPEN_0_Z5_SUPPLYINLET,OFFICE_OPEN_0_Z5_SUPPLYEQUIPMENTOUTLETNODE
 Branch List,6,OFFICE_PRIVATE_0_Z6_BRANCHLIST,OFFICE_PRIVATE_0_Z6_AIRLOOP,Air,1
   Branch,1,OFFICE_PRIVATE_0_Z6_MAINBRANCH,OFFICE_PRIVATE_0_Z6_AIRLOOP,Air,OFFICE_PRIVATE_0_Z6_SUPPLYINLET,OFFICE_PRIVATE_0_Z6_SUPPLYEQUIPMENTOUTLETNODE
 Branch List,7,STORAGE_0_Z7_BRANCHLIST,STORAGE_0_Z7_AIRLOOP,Air,1
   Branch,1,STORAGE_0_Z7_MAINBRANCH,STORAGE_0_Z7_AIRLOOP,Air,STORAGE_0_Z7_SUPPLYINLET,STORAGE_0_Z7_SUPPLYEQUIPMENTOUTLETNODE
 Branch List,8,OFFICE_OPEN_0_2_Z8_BRANCHLIST,OFFICE_OPEN_0_2_Z8_AIRLOOP,Air,1
   Branch,1,OFFICE_OPEN_0_2_Z8_MAINBRANCH,OFFICE_OPEN_0_2_Z8_AIRLOOP,Air,OFFICE_OPEN_0_2_Z8_SUPPLYINLET,OFFICE_OPEN_0_2_Z8_SUPPLYEQUIPMENTOUTLETNODE
 Branch List,9,OFFICE_OPEN_0_3_Z9_BRANCHLIST,OFFICE_OPEN_0_3_Z9_AIRLOOP,Air,1
   Branch,1,OFFICE_OPEN_0_3_Z9_MAINBRANCH,OFFICE_OPEN_0_3_Z9_AIRLOOP,Air,OFFICE_OPEN_0_3_Z9_SUPPLYINLET,OFFICE_OPEN_0_3_Z9_SUPPLYEQUIPMENTOUTLETNODE
 Branch List,10,OFFICE_OPEN_0_4_Z10_BRANCHLIST,OFFICE_OPEN_0_4_Z10_AIRLOOP,Air,1
   Branch,1,OFFICE_OPEN_0_4_Z10_MAINBRANCH,OFFICE_OPEN_0_4_Z10_AIRLOOP,Air,OFFICE_OPEN_0_4_Z10_SUPPLYINLET,OFFICE_OPEN_0_4_Z10_SUPPLYEQUIPMENTOUTLETNODE
 Branch List,11,OFFICE_OPEN_0_5_Z11_BRANCHLIST,OFFICE_OPEN_0_5_Z11_AIRLOOP,Air,1
   Branch,1,OFFICE_OPEN_0_5_Z11_MAINBRANCH,OFFICE_OPEN_0_5_Z11_AIRLOOP,Air,OFFICE_OPEN_0_5_Z11_SUPPLYINLET,OFFICE_OPEN_0_5_Z11_SUPPLYEQUIPMENTOUTLETNODE
 Branch List,12,OFFICE_OPEN_0_6_Z12_BRANCHLIST,OFFICE_OPEN_0_6_Z12_AIRLOOP,Air,1
   Branch,1,OFFICE_OPEN_0_6_Z12_MAINBRANCH,OFFICE_OPEN_0_6_Z12_AIRLOOP,Air,OFFICE_OPEN_0_6_Z12_SUPPLYINLET,OFFICE_OPEN_0_6_Z12_SUPPLYEQUIPMENTOUTLETNODE
 Branch List,13,LOBBY_1_Z13_BRANCHLIST,LOBBY_1_Z13_AIRLOOP,Air,1
   Branch,1,LOBBY_1_Z13_MAINBRANCH,LOBBY_1_Z13_AIRLOOP,Air,LOBBY_1_Z13_SUPPLYINLET,LOBBY_1_Z13_SUPPLYEQUIPMENTOUTLETNODE
 Branch List,14,CONFERENCE_1_Z14_BRANCHLIST,CONFERENCE_1_Z14_AIRLOOP,Air,1
   Branch,1,CONFERENCE_1_Z14_MAINBRANCH,CONFERENCE_1_Z14_AIRLOOP,Air,CONFERENCE_1_Z14_SUPPLYINLET,CONFERENCE_1_Z14_SUPPLYEQUIPMENTOUTLETNODE
 Branch List,15,BREAK_ROOM_1_Z15_BRANCHLIST,BREAK_ROOM_1_Z15_AIRLOOP,Air,1
   Branch,1,BREAK_ROOM_1_Z15_MAINBRANCH,BREAK_ROOM_1_Z15_AIRLOOP,Air,BREAK_ROOM_1_Z15_SUPPLYINLET,BREAK_ROOM_1_Z15_SUPPLYEQUIPMENTOUTLETNODE
 Branch List,16,MECHANICAL_1_Z16_BRANCHLIST,MECHANICAL_1_Z16_AIRLOOP,Air,1
   Branch,1,MECHANICAL_1_Z16_MAINBRANCH,MECHANICAL_1_Z16_AIRLOOP,Air,MECHANICAL_1_Z16_SUPPLYINLET,MECHANICAL_1_Z16_SUPPLYEQUIPMENTOUTLETNODE
 Branch List,17,OFFICE_OPEN_1_Z17_BRANCHLIST,OFFICE_OPEN_1_Z17_AIRLOOP,Air,1
   Branch,1,OFFICE_OPEN_1_Z17_MAINBRANCH,OFFICE_OPEN_1_Z17_AIRLOOP,Air,OFFICE_OPEN_1_Z17_SUPPLYINLET,OFFICE_OPEN_1_Z17_SUPPLYEQUIPMENTOUTLETNODE
 Branch List,18,OFFICE_PRIVATE_1_Z18_BRANCHLIST,OFFICE_PRIVATE_1_Z18_AIRLOOP,Air,1
   Branch,1,OFFICE_PRIVATE_1_Z18_MAINBRANCH,OFFICE_PRIVATE_1_Z18_AIRLOOP,Air,OFFICE_PRIVATE_1_Z18_SUPPLYINLET,OFFICE_PRIVATE_1_Z18_SUPPLYEQUIPMENTOUTLETNODE
 Branch List,19,STORAGE_1_Z19_BRANCHLIST,STORAGE_1_Z19_AIRLOOP,Air,1
   Branch,1,STORAGE_1_Z19_MAINBRANCH,STORAGE_1_Z19_AIRLOOP,Air,STORAGE_1_Z19_SUPPLYINLET,STORAGE_1_Z19_SUPPLYEQUIPMENTOUTLETNODE
 Branch List,20,OFFICE_OPEN_1_2_Z20_BRANCHLIST,OFFICE_OPEN_1_2_Z20_AIRLOOP,Air,1
   Branch,1,OFFICE_OPEN_1_2_Z20_MAINBRANCH,OFFICE_OPEN_1_2_Z20_AIRLOOP,Air,OFFICE_OPEN_1_2_Z20_SUPPLYINLET,OFFICE_OPEN_1_2_Z20_SUPPLYEQUIPMENTOUTLETNODE
 Branch List,21,OFFICE_OPEN_1_3_Z21_BRANCHLIST,OFFICE_OPEN_1_3_Z21_AIRLOOP,Air,1
   Branch,1,OFFICE_OPEN_1_3_Z21_MAINBRANCH,OFFICE_OPEN_1_3_Z21_AIRLOOP,Air,OFFICE_OPEN_1_3_Z21_SUPPLYINLET,OFFICE_OPEN_1_3_Z21_SUPPLYEQUIPMENTOUTLETNODE
 Branch List,22,OFFICE_OPEN_1_4_Z22_BRANCHLIST,OFFICE_OPEN_1_4_Z22_AIRLOOP,Air,1
   Branch,1,OFFICE_OPEN_1_4_Z22_MAINBRANCH,OFFICE_OPEN_1_4_Z22_AIRLOOP,Air,OFFICE_OPEN_1_4_Z22_SUPPLYINLET,OFFICE_OPEN_1_4_Z22_SUPPLYEQUIPMENTOUTLETNODE
 Branch List,23,OFFICE_OPEN_1_5_Z23_BRANCHLIST,OFFICE_OPEN_1_5_Z23_AIRLOOP,Air,1
   Branch,1,OFFICE_OPEN_1_5_Z23_MAINBRANCH,OFFICE_OPEN_1_5_Z23_AIRLOOP,Air,OFFICE_OPEN_1_5_Z23_SUPPLYINLET,OFFICE_OPEN_1_5_Z23_SUPPLYEQUIPMENTOUTLETNODE
 Branch List,24,OFFICE_OPEN_1_6_Z24_BRANCHLIST,OFFICE_OPEN_1_6_Z24_AIRLOOP,Air,1
   Branch,1,OFFICE_OPEN_1_6_Z24_MAINBRANCH,OFFICE_OPEN_1_6_Z24_AIRLOOP,Air,OFFICE_OPEN_1_6_Z24_SUPPLYINLET,OFFICE_OPEN_1_6_Z24_SUPPLYEQUIPMENTOUTLETNODE
 Branch List,25,OFFICE_OPEN_1_7_Z25_BRANCHLIST,OFFICE_OPEN_1_7_Z25_AIRLOOP,Air,1
   Branch,1,OFFICE_OPEN_1_7_Z25_MAINBRANCH,OFFICE_OPEN_1_7_Z25_AIRLOOP,Air,OFFICE_OPEN_1_7_Z25_SUPPLYINLET,OFFICE_OPEN_1_7_Z25_SUPPLYEQUIPMENTOUTLETNODE
 Branch List,26,LOBBY_2_Z26_BRANCHLIST,LOBBY_2_Z26_AIRLOOP,Air,1
   Branch,1,LOBBY_2_Z26_MAINBRANCH,LOBBY_2_Z26_AIRLOOP,Air,LOBBY_2_Z26_SUPPLYINLET,LOBBY_2_Z26_SUPPLYEQUIPMENTOUTLETNODE
 Branch List,27,CONFERENCE_2_Z27_BRANCHLIST,CONFERENCE_2_Z27_AIRLOOP,Air,1
   Branch,1,CONFERENCE_2_Z27_MAINBRANCH,CONFERENCE_2_Z27_AIRLOOP,Air,CONFERENCE_2_Z27_SUPPLYINLET,CONFERENCE_2_Z27_SUPPLYEQUIPMENTOUTLETNODE
 Branch List,28,BREAK_ROOM_2_Z28_BRANCHLIST,BREAK_ROOM_2_Z28_AIRLOOP,Air,1
   Branch,1,BREAK_ROOM_2_Z28_MAINBRANCH,BREAK_ROOM_2_Z28_AIRLOOP,Air,BREAK_ROOM_2_Z28_SUPPLYINLET,BREAK_ROOM_2_Z28_SUPPLYEQUIPMENTOUTLETNODE
 Branch List,29,MECHANICAL_2_Z29_BRANCHLIST,MECHANICAL_2_Z29_AIRLOOP,Air,1
   Branch,1,MECHANICAL_2_Z29_MAINBRANCH,MECHANICAL_2_Z29_AIRLOOP,Air,MECHANICAL_2_Z29_SUPPLYINLET,MECHANICAL_2_Z29_SUPPLYEQUIPMENTOUTLETNODE
 Branch List,30,OFFICE_OPEN_2_Z30_BRANCHLIST,OFFICE_OPEN_2_Z30_AIRLOOP,Air,1
   Branch,1,OFFICE_OPEN_2_Z30_MAINBRANCH,OFFICE_OPEN_2_Z30_AIRLOOP,Air,OFFICE_OPEN_2_Z30_SUPPLYINLET,OFFICE_OPEN_2_Z30_SUPPLYEQUIPMENTOUTLETNODE
 Branch List,31,OFFICE_PRIVATE_2_Z31_BRANCHLIST,OFFICE_PRIVATE_2_Z31_AIRLOOP,Air,1
   Branch,1,OFFICE_PRIVATE_2_Z31_MAINBRANCH,OFFICE_PRIVATE_2_Z31_AIRLOOP,Air,OFFICE_PRIVATE_2_Z31_SUPPLYINLET,OFFICE_PRIVATE_2_Z31_SUPPLYEQUIPMENTOUTLETNODE
 Branch List,32,STORAGE_2_Z32_BRANCHLIST,STORAGE_2_Z32_AIRLOOP,Air,1
   Branch,1,STORAGE_2_Z32_MAINBRANCH,STORAGE_2_Z32_AIRLOOP,Air,STORAGE_2_Z32_SUPPLYINLET,STORAGE_2_Z32_SUPPLYEQUIPMENTOUTLETNODE
 Branch List,33,OFFICE_OPEN_2_2_Z33_BRANCHLIST,OFFICE_OPEN_2_2_Z33_AIRLOOP,Air,1
   Branch,1,OFFICE_OPEN_2_2_Z33_MAINBRANCH,OFFICE_OPEN_2_2_Z33_AIRLOOP,Air,OFFICE_OPEN_2_2_Z33_SUPPLYINLET,OFFICE_OPEN_2_2_Z33_SUPPLYEQUIPMENTOUTLETNODE
 Branch List,34,OFFICE_OPEN_2_3_Z34_BRANCHLIST,OFFICE_OPEN_2_3_Z34_AIRLOOP,Air,1
   Branch,1,OFFICE_OPEN_2_3_Z34_MAINBRANCH,OFFICE_OPEN_2_3_Z34_AIRLOOP,Air,OFFICE_OPEN_2_3_Z34_SUPPLYINLET,OFFICE_OPEN_2_3_Z34_SUPPLYEQUIPMENTOUTLETNODE
 Branch List,35,OFFICE_OPEN_2_4_Z35_BRANCHLIST,OFFICE_OPEN_2_4_Z35_AIRLOOP,Air,1
   Branch,1,OFFICE_OPEN_2_4_Z35_MAINBRANCH,OFFICE_OPEN_2_4_Z35_AIRLOOP,Air,OFFICE_OPEN_2_4_Z35_SUPPLYINLET,OFFICE_OPEN_2_4_Z35_SUPPLYEQUIPMENTOUTLETNODE
 Branch List,36,OFFICE_OPEN_2_5_Z36_BRANCHLIST,OFFICE_OPEN_2_5_Z36_AIRLOOP,Air,1
   Branch,1,OFFICE_OPEN_2_5_Z36_MAINBRANCH,OFFICE_OPEN_2_5_Z36_AIRLOOP,Air,OFFICE_OPEN_2_5_Z36_SUPPLYINLET,OFFICE_OPEN_2_5_Z36_SUPPLYEQUIPMENTOUTLETNODE
 Branch List,37,OFFICE_OPEN_2_6_Z37_BRANCHLIST,OFFICE_OPEN_2_6_Z37_AIRLOOP,Air,1
   Branch,1,OFFICE_OPEN_2_6_Z37_MAINBRANCH,OFFICE_OPEN_2_6_Z37_AIRLOOP,Air,OFFICE_OPEN_2_6_Z37_SUPPLYINLET,OFFICE_OPEN_2_6_Z37_SUPPLYEQUIPMENTOUTLETNODE
 Branch List,38,OFFICE_OPEN_2_7_Z38_BRANCHLIST,OFFICE_OPEN_2_7_Z38_AIRLOOP,Air,1
   Branch,1,OFFICE_OPEN_2_7_Z38_MAINBRANCH,OFFICE_OPEN_2_7_Z38_AIRLOOP,Air,OFFICE_OPEN_2_7_Z38_SUPPLYINLET,OFFICE_OPEN_2_7_Z38_SUPPLYEQUIPMENTOUTLETNODE
 Branch List,39,LOBBY_3_Z39_BRANCHLIST,LOBBY_3_Z39_AIRLOOP,Air,1
   Branch,1,LOBBY_3_Z39_MAINBRANCH,LOBBY_3_Z39_AIRLOOP,Air,LOBBY_3_Z39_SUPPLYINLET,LOBBY_3_Z39_SUPPLYEQUIPMENTOUTLETNODE
 Branch List,40,CONFERENCE_3_Z40_BRANCHLIST,CONFERENCE_3_Z40_AIRLOOP,Air,1
   Branch,1,CONFERENCE_3_Z40_MAINBRANCH,CONFERENCE_3_Z40_AIRLOOP,Air,CONFERENCE_3_Z40_SUPPLYINLET,CONFERENCE_3_Z40_SUPPLYEQUIPMENTOUTLETNODE
 Branch List,41,BREAK_ROOM_3_Z41_BRANCHLIST,BREAK_ROOM_3_Z41_AIRLOOP,Air,1
   Branch,1,BREAK_ROOM_3_Z41_MAINBRANCH,BREAK_ROOM_3_Z41_AIRLOOP,Air,BREAK_ROOM_3_Z41_SUPPLYINLET,BREAK_ROOM_3_Z41_SUPPLYEQUIPMENTOUTLETNODE
 Branch List,42,MECHANICAL_3_Z42_BRANCHLIST,MECHANICAL_3_Z42_AIRLOOP,Air,1
   Branch,1,MECHANICAL_3_Z42_MAINBRANCH,MECHANICAL_3_Z42_AIRLOOP,Air,MECHANICAL_3_Z42_SUPPLYINLET,MECHANICAL_3_Z42_SUPPLYEQUIPMENTOUTLETNODE
 Branch List,43,OFFICE_OPEN_3_Z43_BRANCHLIST,OFFICE_OPEN_3_Z43_AIRLOOP,Air,1
   Branch,1,OFFICE_OPEN_3_Z43_MAINBRANCH,OFFICE_OPEN_3_Z43_AIRLOOP,Air,OFFICE_OPEN_3_Z43_SUPPLYINLET,OFFICE_OPEN_3_Z43_SUPPLYEQUIPMENTOUTLETNODE
 Branch List,44,OFFICE_PRIVATE_3_Z44_BRANCHLIST,OFFICE_PRIVATE_3_Z44_AIRLOOP,Air,1
   Branch,1,OFFICE_PRIVATE_3_Z44_MAINBRANCH,OFFICE_PRIVATE_3_Z44_AIRLOOP,Air,OFFICE_PRIVATE_3_Z44_SUPPLYINLET,OFFICE_PRIVATE_3_Z44_SUPPLYEQUIPMENTOUTLETNODE
 Branch List,45,STORAGE_3_Z45_BRANCHLIST,STORAGE_3_Z45_AIRLOOP,Air,1
   Branch,1,STORAGE_3_Z45_MAINBRANCH,STORAGE_3_Z45_AIRLOOP,Air,STORAGE_3_Z45_SUPPLYINLET,STORAGE_3_Z45_SUPPLYEQUIPMENTOUTLETNODE
 Branch List,46,OFFICE_OPEN_3_2_Z46_BRANCHLIST,OFFICE_OPEN_3_2_Z46_AIRLOOP,Air,1
   Branch,1,OFFICE_OPEN_3_2_Z46_MAINBRANCH,OFFICE_OPEN_3_2_Z46_AIRLOOP,Air,OFFICE_OPEN_3_2_Z46_SUPPLYINLET,OFFICE_OPEN_3_2_Z46_SUPPLYEQUIPMENTOUTLETNODE
 Branch List,47,OFFICE_OPEN_3_3_Z47_BRANCHLIST,OFFICE_OPEN_3_3_Z47_AIRLOOP,Air,1
   Branch,1,OFFICE_OPEN_3_3_Z47_MAINBRANCH,OFFICE_OPEN_3_3_Z47_AIRLOOP,Air,OFFICE_OPEN_3_3_Z47_SUPPLYINLET,OFFICE_OPEN_3_3_Z47_SUPPLYEQUIPMENTOUTLETNODE
 Branch List,48,OFFICE_OPEN_3_4_Z48_BRANCHLIST,OFFICE_OPEN_3_4_Z48_AIRLOOP,Air,1
   Branch,1,OFFICE_OPEN_3_4_Z48_MAINBRANCH,OFFICE_OPEN_3_4_Z48_AIRLOOP,Air,OFFICE_OPEN_3_4_Z48_SUPPLYINLET,OFFICE_OPEN_3_4_Z48_SUPPLYEQUIPMENTOUTLETNODE
 Branch List,49,OFFICE_OPEN_3_5_Z49_BRANCHLIST,OFFICE_OPEN_3_5_Z49_AIRLOOP,Air,1
   Branch,1,OFFICE_OPEN_3_5_Z49_MAINBRANCH,OFFICE_OPEN_3_5_Z49_AIRLOOP,Air,OFFICE_OPEN_3_5_Z49_SUPPLYINLET,OFFICE_OPEN_3_5_Z49_SUPPLYEQUIPMENTOUTLETNODE
 Branch List,50,OFFICE_OPEN_3_6_Z50_BRANCHLIST,OFFICE_OPEN_3_6_Z50_AIRLOOP,Air,1
   Branch,1,OFFICE_OPEN_3_6_Z50_MAINBRANCH,OFFICE_OPEN_3_6_Z50_AIRLOOP,Air,OFFICE_OPEN_3_6_Z50_SUPPLYINLET,OFFICE_OPEN_3_6_Z50_SUPPLYEQUIPMENTOUTLETNODE
 Branch List,51,OFFICE_OPEN_3_7_Z51_BRANCHLIST,OFFICE_OPEN_3_7_Z51_AIRLOOP,Air,1
   Branch,1,OFFICE_OPEN_3_7_Z51_MAINBRANCH,OFFICE_OPEN_3_7_Z51_AIRLOOP,Air,OFFICE_OPEN_3_7_Z51_SUPPLYINLET,OFFICE_OPEN_3_7_Z51_SUPPLYEQUIPMENTOUTLETNODE
 Branch List,52,LOBBY_4_Z52_BRANCHLIST,LOBBY_4_Z52_AIRLOOP,Air,1
   Branch,1,LOBBY_4_Z52_MAINBRANCH,LOBBY_4_Z52_AIRLOOP,Air,LOBBY_4_Z52_SUPPLYINLET,LOBBY_4_Z52_SUPPLYEQUIPMENTOUTLETNODE
 Branch List,53,CONFERENCE_4_Z53_BRANCHLIST,CONFERENCE_4_Z53_AIRLOOP,Air,1
   Branch,1,CONFERENCE_4_Z53_MAINBRANCH,CONFERENCE_4_Z53_AIRLOOP,Air,CONFERENCE_4_Z53_SUPPLYINLET,CONFERENCE_4_Z53_SUPPLYEQUIPMENTOUTLETNODE
 Branch List,54,BREAK_ROOM_4_Z54_BRANCHLIST,BREAK_ROOM_4_Z54_AIRLOOP,Air,1
   Branch,1,BREAK_ROOM_4_Z54_MAINBRANCH,BREAK_ROOM_4_Z54_AIRLOOP,Air,BREAK_ROOM_4_Z54_SUPPLYINLET,BREAK_ROOM_4_Z54_SUPPLYEQUIPMENTOUTLETNODE
 Branch List,55,MECHANICAL_4_Z55_BRANCHLIST,MECHANICAL_4_Z55_AIRLOOP,Air,1
   Branch,1,MECHANICAL_4_Z55_MAINBRANCH,MECHANICAL_4_Z55_AIRLOOP,Air,MECHANICAL_4_Z55_SUPPLYINLET,MECHANICAL_4_Z55_SUPPLYEQUIPMENTOUTLETNODE
 Branch List,56,OFFICE_OPEN_4_Z56_BRANCHLIST,OFFICE_OPEN_4_Z56_AIRLOOP,Air,1
   Branch,1,OFFICE_OPEN_4_Z56_MAINBRANCH,OFFICE_OPEN_4_Z56_AIRLOOP,Air,OFFICE_OPEN_4_Z56_SUPPLYINLET,OFFICE_OPEN_4_Z56_SUPPLYEQUIPMENTOUTLETNODE
 Branch List,57,OFFICE_PRIVATE_4_Z57_BRANCHLIST,OFFICE_PRIVATE_4_Z57_AIRLOOP,Air,1
   Branch,1,OFFICE_PRIVATE_4_Z57_MAINBRANCH,OFFICE_PRIVATE_4_Z57_AIRLOOP,Air,OFFICE_PRIVATE_4_Z57_SUPPLYINLET,OFFICE_PRIVATE_4_Z57_SUPPLYEQUIPMENTOUTLETNODE
 Branch List,58,STORAGE_4_Z58_BRANCHLIST,STORAGE_4_Z58_AIRLOOP,Air,1
   Branch,1,STORAGE_4_Z58_MAINBRANCH,STORAGE_4_Z58_AIRLOOP,Air,STORAGE_4_Z58_SUPPLYINLET,STORAGE_4_Z58_SUPPLYEQUIPMENTOUTLETNODE
 Branch List,59,OFFICE_OPEN_4_2_Z59_BRANCHLIST,OFFICE_OPEN_4_2_Z59_AIRLOOP,Air,1
   Branch,1,OFFICE_OPEN_4_2_Z59_MAINBRANCH,OFFICE_OPEN_4_2_Z59_AIRLOOP,Air,OFFICE_OPEN_4_2_Z59_SUPPLYINLET,OFFICE_OPEN_4_2_Z59_SUPPLYEQUIPMENTOUTLETNODE
 Branch List,60,OFFICE_OPEN_4_3_Z60_BRANCHLIST,OFFICE_OPEN_4_3_Z60_AIRLOOP,Air,1
   Branch,1,OFFICE_OPEN_4_3_Z60_MAINBRANCH,OFFICE_OPEN_4_3_Z60_AIRLOOP,Air,OFFICE_OPEN_4_3_Z60_SUPPLYINLET,OFFICE_OPEN_4_3_Z60_SUPPLYEQUIPMENTOUTLETNODE
 Branch List,61,OFFICE_OPEN_4_4_Z61_BRANCHLIST,OFFICE_OPEN_4_4_Z61_AIRLOOP,Air,1
   Branch,1,OFFICE_OPEN_4_4_Z61_MAINBRANCH,OFFICE_OPEN_4_4_Z61_AIRLOOP,Air,OFFICE_OPEN_4_4_Z61_SUPPLYINLET,OFFICE_OPEN_4_4_Z61_SUPPLYEQUIPMENTOUTLETNODE
 Branch List,62,OFFICE_OPEN_4_5_Z62_BRANCHLIST,OFFICE_OPEN_4_5_Z62_AIRLOOP,Air,1
   Branch,1,OFFICE_OPEN_4_5_Z62_MAINBRANCH,OFFICE_OPEN_4_5_Z62_AIRLOOP,Air,OFFICE_OPEN_4_5_Z62_SUPPLYINLET,OFFICE_OPEN_4_5_Z62_SUPPLYEQUIPMENTOUTLETNODE
 Branch List,63,OFFICE_OPEN_4_6_Z63_BRANCHLIST,OFFICE_OPEN_4_6_Z63_AIRLOOP,Air,1
   Branch,1,OFFICE_OPEN_4_6_Z63_MAINBRANCH,OFFICE_OPEN_4_6_Z63_AIRLOOP,Air,OFFICE_OPEN_4_6_Z63_SUPPLYINLET,OFFICE_OPEN_4_6_Z63_SUPPLYEQUIPMENTOUTLETNODE
 Branch List,64,OFFICE_OPEN_4_7_Z64_BRANCHLIST,OFFICE_OPEN_4_7_Z64_AIRLOOP,Air,1
   Branch,1,OFFICE_OPEN_4_7_Z64_MAINBRANCH,OFFICE_OPEN_4_7_Z64_AIRLOOP,Air,OFFICE_OPEN_4_7_Z64_SUPPLYINLET,OFFICE_OPEN_4_7_Z64_SUPPLYEQUIPMENTOUTLETNODE
! ===============================================================
! <#Supply Air Paths>,<Number of Supply Air Paths>
 #Supply Air Paths,64
! <Supply Air Path>,<Supply Air Path Count>,<Supply Air Path Name>,<AirLoopHVAC Name>
! <#Components on Supply Air Path>,<Number of Components>
! <Supply Air Path Component>,<Component Count>,<Component Type>,<Component Name>,<AirLoopHVAC Name>
! <#Outlet Nodes on Supply Air Path Component>,<Number of Nodes>
! <Supply Air Path Component Nodes>,<Node Count>,<Component Type>,<Component Name>,<Inlet Node Name>,<Outlet Node Name>,<AirLoopHVAC Name>
 Supply Air Path,1,LOBBY_0_Z1,LOBBY_0_Z1_AIRLOOP
   #Components on Supply Air Path,1
   Supply Air Path Component,1,AIRLOOPHVAC:ZONESPLITTER,LOBBY_0_Z1_SUPPLYSPLITTER,LOBBY_0_Z1_AIRLOOP
     #Outlet Nodes on Supply Air Path Component,1
     Supply Air Path Component Nodes,1,AIRLOOPHVAC:ZONESPLITTER,LOBBY_0_Z1_SUPPLYSPLITTER,LOBBY_0_Z1_ZONEEQUIPMENTINLET,LOBBY_0_Z1_TERMINALINLET,LOBBY_0_Z1_AIRLOOP
! <#Nodes on Supply Air Path>,<Number of Nodes>
! <Supply Air Path Node>,<Node Type>,<Node Count>,<Node Name>,<AirLoopHVAC Name>
#Nodes on Supply Air Path,2
   Supply Air Path Node,Inlet Node,1,LOBBY_0_Z1_ZONEEQUIPMENTINLET,LOBBY_0_Z1_AIRLOOP
   Supply Air Path Node,Outlet Node,2,LOBBY_0_Z1_TERMINALINLET,LOBBY_0_Z1_AIRLOOP
 Supply Air Path,2,CONFERENCE_0_Z2,CONFERENCE_0_Z2_AIRLOOP
   #Components on Supply Air Path,1
   Supply Air Path Component,1,AIRLOOPHVAC:ZONESPLITTER,CONFERENCE_0_Z2_SUPPLYSPLITTER,CONFERENCE_0_Z2_AIRLOOP
     #Outlet Nodes on Supply Air Path Component,1
     Supply Air Path Component Nodes,1,AIRLOOPHVAC:ZONESPLITTER,CONFERENCE_0_Z2_SUPPLYSPLITTER,CONFERENCE_0_Z2_ZONEEQUIPMENTINLET,CONFERENCE_0_Z2_TERMINALINLET,CONFERENCE_0_Z2_AIRLOOP
! <#Nodes on Supply Air Path>,<Number of Nodes>
! <Supply Air Path Node>,<Node Type>,<Node Count>,<Node Name>,<AirLoopHVAC Name>
#Nodes on Supply Air Path,2
   Supply Air Path Node,Inlet Node,1,CONFERENCE_0_Z2_ZONEEQUIPMENTINLET,CONFERENCE_0_Z2_AIRLOOP
   Supply Air Path Node,Outlet Node,2,CONFERENCE_0_Z2_TERMINALINLET,CONFERENCE_0_Z2_AIRLOOP
 Supply Air Path,3,BREAK_ROOM_0_Z3,BREAK_ROOM_0_Z3_AIRLOOP
   #Components on Supply Air Path,1
   Supply Air Path Component,1,AIRLOOPHVAC:ZONESPLITTER,BREAK_ROOM_0_Z3_SUPPLYSPLITTER,BREAK_ROOM_0_Z3_AIRLOOP
     #Outlet Nodes on Supply Air Path Component,1
     Supply Air Path Component Nodes,1,AIRLOOPHVAC:ZONESPLITTER,BREAK_ROOM_0_Z3_SUPPLYSPLITTER,BREAK_ROOM_0_Z3_ZONEEQUIPMENTINLET,BREAK_ROOM_0_Z3_TERMINALINLET,BREAK_ROOM_0_Z3_AIRLOOP
! <#Nodes on Supply Air Path>,<Number of Nodes>
! <Supply Air Path Node>,<Node Type>,<Node Count>,<Node Name>,<AirLoopHVAC Name>
#Nodes on Supply Air Path,2
   Supply Air Path Node,Inlet Node,1,BREAK_ROOM_0_Z3_ZONEEQUIPMENTINLET,BREAK_ROOM_0_Z3_AIRLOOP
   Supply Air Path Node,Outlet Node,2,BREAK_ROOM_0_Z3_TERMINALINLET,BREAK_ROOM_0_Z3_AIRLOOP
 Supply Air Path,4,MECHANICAL_0_Z4,MECHANICAL_0_Z4_AIRLOOP
   #Components on Supply Air Path,1
   Supply Air Path Component,1,AIRLOOPHVAC:ZONESPLITTER,MECHANICAL_0_Z4_SUPPLYSPLITTER,MECHANICAL_0_Z4_AIRLOOP
     #Outlet Nodes on Supply Air Path Component,1
     Supply Air Path Component Nodes,1,AIRLOOPHVAC:ZONESPLITTER,MECHANICAL_0_Z4_SUPPLYSPLITTER,MECHANICAL_0_Z4_ZONEEQUIPMENTINLET,MECHANICAL_0_Z4_TERMINALINLET,MECHANICAL_0_Z4_AIRLOOP
! <#Nodes on Supply Air Path>,<Number of Nodes>
! <Supply Air Path Node>,<Node Type>,<Node Count>,<Node Name>,<AirLoopHVAC Name>
#Nodes on Supply Air Path,2
   Supply Air Path Node,Inlet Node,1,MECHANICAL_0_Z4_ZONEEQUIPMENTINLET,MECHANICAL_0_Z4_AIRLOOP
   Supply Air Path Node,Outlet Node,2,MECHANICAL_0_Z4_TERMINALINLET,MECHANICAL_0_Z4_AIRLOOP
 Supply Air Path,5,OFFICE_OPEN_0_Z5,OFFICE_OPEN_0_Z5_AIRLOOP
   #Components on Supply Air Path,1
   Supply Air Path Component,1,AIRLOOPHVAC:ZONESPLITTER,OFFICE_OPEN_0_Z5_SUPPLYSPLITTER,OFFICE_OPEN_0_Z5_AIRLOOP
     #Outlet Nodes on Supply Air Path Component,1
     Supply Air Path Component Nodes,1,AIRLOOPHVAC:ZONESPLITTER,OFFICE_OPEN_0_Z5_SUPPLYSPLITTER,OFFICE_OPEN_0_Z5_ZONEEQUIPMENTINLET,OFFICE_OPEN_0_Z5_TERMINALINLET,OFFICE_OPEN_0_Z5_AIRLOOP
! <#Nodes on Supply Air Path>,<Number of Nodes>
! <Supply Air Path Node>,<Node Type>,<Node Count>,<Node Name>,<AirLoopHVAC Name>
#Nodes on Supply Air Path,2
   Supply Air Path Node,Inlet Node,1,OFFICE_OPEN_0_Z5_ZONEEQUIPMENTINLET,OFFICE_OPEN_0_Z5_AIRLOOP
   Supply Air Path Node,Outlet Node,2,OFFICE_OPEN_0_Z5_TERMINALINLET,OFFICE_OPEN_0_Z5_AIRLOOP
 Supply Air Path,6,OFFICE_PRIVATE_0_Z6,OFFICE_PRIVATE_0_Z6_AIRLOOP
   #Components on Supply Air Path,1
   Supply Air Path Component,1,AIRLOOPHVAC:ZONESPLITTER,OFFICE_PRIVATE_0_Z6_SUPPLYSPLITTER,OFFICE_PRIVATE_0_Z6_AIRLOOP
     #Outlet Nodes on Supply Air Path Component,1
     Supply Air Path Component Nodes,1,AIRLOOPHVAC:ZONESPLITTER,OFFICE_PRIVATE_0_Z6_SUPPLYSPLITTER,OFFICE_PRIVATE_0_Z6_ZONEEQUIPMENTINLET,OFFICE_PRIVATE_0_Z6_TERMINALINLET,OFFICE_PRIVATE_0_Z6_AIRLOOP
! <#Nodes on Supply Air Path>,<Number of Nodes>
! <Supply Air Path Node>,<Node Type>,<Node Count>,<Node Name>,<AirLoopHVAC Name>
#Nodes on Supply Air Path,2
   Supply Air Path Node,Inlet Node,1,OFFICE_PRIVATE_0_Z6_ZONEEQUIPMENTINLET,OFFICE_PRIVATE_0_Z6_AIRLOOP
   Supply Air Path Node,Outlet Node,2,OFFICE_PRIVATE_0_Z6_TERMINALINLET,OFFICE_PRIVATE_0_Z6_AIRLOOP
 Supply Air Path,7,STORAGE_0_Z7,STORAGE_0_Z7_AIRLOOP
   #Components on Supply Air Path,1
   Supply Air Path Component,1,AIRLOOPHVAC:ZONESPLITTER,STORAGE_0_Z7_SUPPLYSPLITTER,STORAGE_0_Z7_AIRLOOP
     #Outlet Nodes on Supply Air Path Component,1
     Supply Air Path Component Nodes,1,AIRLOOPHVAC:ZONESPLITTER,STORAGE_0_Z7_SUPPLYSPLITTER,STORAGE_0_Z7_ZONEEQUIPMENTINLET,STORAGE_0_Z7_TERMINALINLET,STORAGE_0_Z7_AIRLOOP
! <#Nodes on Supply Air Path>,<Number of Nodes>
! <Supply Air Path Node>,<Node Type>,<Node Count>,<Node Name>,<AirLoopHVAC Name>
#Nodes on Supply Air Path,2
   Supply Air Path Node,Inlet Node,1,STORAGE_0_Z7_ZONEEQUIPMENTINLET,STORAGE_0_Z7_AIRLOOP
   Supply Air Path Node,Outlet Node,2,STORAGE_0_Z7_TERMINALINLET,STORAGE_0_Z7_AIRLOOP
 Supply Air Path,8,OFFICE_OPEN_0_2_Z8,OFFICE_OPEN_0_2_Z8_AIRLOOP
   #Components on Supply Air Path,1
   Supply Air Path Component,1,AIRLOOPHVAC:ZONESPLITTER,OFFICE_OPEN_0_2_Z8_SUPPLYSPLITTER,OFFICE_OPEN_0_2_Z8_AIRLOOP
     #Outlet Nodes on Supply Air Path Component,1
     Supply Air Path Component Nodes,1,AIRLOOPHVAC:ZONESPLITTER,OFFICE_OPEN_0_2_Z8_SUPPLYSPLITTER,OFFICE_OPEN_0_2_Z8_ZONEEQUIPMENTINLET,OFFICE_OPEN_0_2_Z8_TERMINALINLET,OFFICE_OPEN_0_2_Z8_AIRLOOP
! <#Nodes on Supply Air Path>,<Number of Nodes>
! <Supply Air Path Node>,<Node Type>,<Node Count>,<Node Name>,<AirLoopHVAC Name>
#Nodes on Supply Air Path,2
   Supply Air Path Node,Inlet Node,1,OFFICE_OPEN_0_2_Z8_ZONEEQUIPMENTINLET,OFFICE_OPEN_0_2_Z8_AIRLOOP
   Supply Air Path Node,Outlet Node,2,OFFICE_OPEN_0_2_Z8_TERMINALINLET,OFFICE_OPEN_0_2_Z8_AIRLOOP
 Supply Air Path,9,OFFICE_OPEN_0_3_Z9,OFFICE_OPEN_0_3_Z9_AIRLOOP
   #Components on Supply Air Path,1
   Supply Air Path Component,1,AIRLOOPHVAC:ZONESPLITTER,OFFICE_OPEN_0_3_Z9_SUPPLYSPLITTER,OFFICE_OPEN_0_3_Z9_AIRLOOP
     #Outlet Nodes on Supply Air Path Component,1
     Supply Air Path Component Nodes,1,AIRLOOPHVAC:ZONESPLITTER,OFFICE_OPEN_0_3_Z9_SUPPLYSPLITTER,OFFICE_OPEN_0_3_Z9_ZONEEQUIPMENTINLET,OFFICE_OPEN_0_3_Z9_TERMINALINLET,OFFICE_OPEN_0_3_Z9_AIRLOOP
! <#Nodes on Supply Air Path>,<Number of Nodes>
! <Supply Air Path Node>,<Node Type>,<Node Count>,<Node Name>,<AirLoopHVAC Name>
#Nodes on Supply Air Path,2
   Supply Air Path Node,Inlet Node,1,OFFICE_OPEN_0_3_Z9_ZONEEQUIPMENTINLET,OFFICE_OPEN_0_3_Z9_AIRLOOP
   Supply Air Path Node,Outlet Node,2,OFFICE_OPEN_0_3_Z9_TERMINALINLET,OFFICE_OPEN_0_3_Z9_AIRLOOP
 Supply Air Path,10,OFFICE_OPEN_0_4_Z10,OFFICE_OPEN_0_4_Z10_AIRLOOP
   #Components on Supply Air Path,1
   Supply Air Path Component,1,AIRLOOPHVAC:ZONESPLITTER,OFFICE_OPEN_0_4_Z10_SUPPLYSPLITTER,OFFICE_OPEN_0_4_Z10_AIRLOOP
     #Outlet Nodes on Supply Air Path Component,1
     Supply Air Path Component Nodes,1,AIRLOOPHVAC:ZONESPLITTER,OFFICE_OPEN_0_4_Z10_SUPPLYSPLITTER,OFFICE_OPEN_0_4_Z10_ZONEEQUIPMENTINLET,OFFICE_OPEN_0_4_Z10_TERMINALINLET,OFFICE_OPEN_0_4_Z10_AIRLOOP
! <#Nodes on Supply Air Path>,<Number of Nodes>
! <Supply Air Path Node>,<Node Type>,<Node Count>,<Node Name>,<AirLoopHVAC Name>
#Nodes on Supply Air Path,2
   Supply Air Path Node,Inlet Node,1,OFFICE_OPEN_0_4_Z10_ZONEEQUIPMENTINLET,OFFICE_OPEN_0_4_Z10_AIRLOOP
   Supply Air Path Node,Outlet Node,2,OFFICE_OPEN_0_4_Z10_TERMINALINLET,OFFICE_OPEN_0_4_Z10_AIRLOOP
 Supply Air Path,11,OFFICE_OPEN_0_5_Z11,OFFICE_OPEN_0_5_Z11_AIRLOOP
   #Components on Supply Air Path,1
   Supply Air Path Component,1,AIRLOOPHVAC:ZONESPLITTER,OFFICE_OPEN_0_5_Z11_SUPPLYSPLITTER,OFFICE_OPEN_0_5_Z11_AIRLOOP
     #Outlet Nodes on Supply Air Path Component,1
     Supply Air Path Component Nodes,1,AIRLOOPHVAC:ZONESPLITTER,OFFICE_OPEN_0_5_Z11_SUPPLYSPLITTER,OFFICE_OPEN_0_5_Z11_ZONEEQUIPMENTINLET,OFFICE_OPEN_0_5_Z11_TERMINALINLET,OFFICE_OPEN_0_5_Z11_AIRLOOP
! <#Nodes on Supply Air Path>,<Number of Nodes>
! <Supply Air Path Node>,<Node Type>,<Node Count>,<Node Name>,<AirLoopHVAC Name>
#Nodes on Supply Air Path,2
   Supply Air Path Node,Inlet Node,1,OFFICE_OPEN_0_5_Z11_ZONEEQUIPMENTINLET,OFFICE_OPEN_0_5_Z11_AIRLOOP
   Supply Air Path Node,Outlet Node,2,OFFICE_OPEN_0_5_Z11_TERMINALINLET,OFFICE_OPEN_0_5_Z11_AIRLOOP
 Supply Air Path,12,OFFICE_OPEN_0_6_Z12,OFFICE_OPEN_0_6_Z12_AIRLOOP
   #Components on Supply Air Path,1
   Supply Air Path Component,1,AIRLOOPHVAC:ZONESPLITTER,OFFICE_OPEN_0_6_Z12_SUPPLYSPLITTER,OFFICE_OPEN_0_6_Z12_AIRLOOP
     #Outlet Nodes on Supply Air Path Component,1
     Supply Air Path Component Nodes,1,AIRLOOPHVAC:ZONESPLITTER,OFFICE_OPEN_0_6_Z12_SUPPLYSPLITTER,OFFICE_OPEN_0_6_Z12_ZONEEQUIPMENTINLET,OFFICE_OPEN_0_6_Z12_TERMINALINLET,OFFICE_OPEN_0_6_Z12_AIRLOOP
! <#Nodes on Supply Air Path>,<Number of Nodes>
! <Supply Air Path Node>,<Node Type>,<Node Count>,<Node Name>,<AirLoopHVAC Name>
#Nodes on Supply Air Path,2
   Supply Air Path Node,Inlet Node,1,OFFICE_OPEN_0_6_Z12_ZONEEQUIPMENTINLET,OFFICE_OPEN_0_6_Z12_AIRLOOP
   Supply Air Path Node,Outlet Node,2,OFFICE_OPEN_0_6_Z12_TERMINALINLET,OFFICE_OPEN_0_6_Z12_AIRLOOP
 Supply Air Path,13,LOBBY_1_Z13,LOBBY_1_Z13_AIRLOOP
   #Components on Supply Air Path,1
   Supply Air Path Component,1,AIRLOOPHVAC:ZONESPLITTER,LOBBY_1_Z13_SUPPLYSPLITTER,LOBBY_1_Z13_AIRLOOP
     #Outlet Nodes on Supply Air Path Component,1
     Supply Air Path Component Nodes,1,AIRLOOPHVAC:ZONESPLITTER,LOBBY_1_Z13_SUPPLYSPLITTER,LOBBY_1_Z13_ZONEEQUIPMENTINLET,LOBBY_1_Z13_TERMINALINLET,LOBBY_1_Z13_AIRLOOP
! <#Nodes on Supply Air Path>,<Number of Nodes>
! <Supply Air Path Node>,<Node Type>,<Node Count>,<Node Name>,<AirLoopHVAC Name>
#Nodes on Supply Air Path,2
   Supply Air Path Node,Inlet Node,1,LOBBY_1_Z13_ZONEEQUIPMENTINLET,LOBBY_1_Z13_AIRLOOP
   Supply Air Path Node,Outlet Node,2,LOBBY_1_Z13_TERMINALINLET,LOBBY_1_Z13_AIRLOOP
 Supply Air Path,14,CONFERENCE_1_Z14,CONFERENCE_1_Z14_AIRLOOP
   #Components on Supply Air Path,1
   Supply Air Path Component,1,AIRLOOPHVAC:ZONESPLITTER,CONFERENCE_1_Z14_SUPPLYSPLITTER,CONFERENCE_1_Z14_AIRLOOP
     #Outlet Nodes on Supply Air Path Component,1
     Supply Air Path Component Nodes,1,AIRLOOPHVAC:ZONESPLITTER,CONFERENCE_1_Z14_SUPPLYSPLITTER,CONFERENCE_1_Z14_ZONEEQUIPMENTINLET,CONFERENCE_1_Z14_TERMINALINLET,CONFERENCE_1_Z14_AIRLOOP
! <#Nodes on Supply Air Path>,<Number of Nodes>
! <Supply Air Path Node>,<Node Type>,<Node Count>,<Node Name>,<AirLoopHVAC Name>
#Nodes on Supply Air Path,2
   Supply Air Path Node,Inlet Node,1,CONFERENCE_1_Z14_ZONEEQUIPMENTINLET,CONFERENCE_1_Z14_AIRLOOP
   Supply Air Path Node,Outlet Node,2,CONFERENCE_1_Z14_TERMINALINLET,CONFERENCE_1_Z14_AIRLOOP
 Supply Air Path,15,BREAK_ROOM_1_Z15,BREAK_ROOM_1_Z15_AIRLOOP
   #Components on Supply Air Path,1
   Supply Air Path Component,1,AIRLOOPHVAC:ZONESPLITTER,BREAK_ROOM_1_Z15_SUPPLYSPLITTER,BREAK_ROOM_1_Z15_AIRLOOP
     #Outlet Nodes on Supply Air Path Component,1
     Supply Air Path Component Nodes,1,AIRLOOPHVAC:ZONESPLITTER,BREAK_ROOM_1_Z15_SUPPLYSPLITTER,BREAK_ROOM_1_Z15_ZONEEQUIPMENTINLET,BREAK_ROOM_1_Z15_TERMINALINLET,BREAK_ROOM_1_Z15_AIRLOOP
! <#Nodes on Supply Air Path>,<Number of Nodes>
! <Supply Air Path Node>,<Node Type>,<Node Count>,<Node Name>,<AirLoopHVAC Name>
#Nodes on Supply Air Path,2
   Supply Air Path Node,Inlet Node,1,BREAK_ROOM_1_Z15_ZONEEQUIPMENTINLET,BREAK_ROOM_1_Z15_AIRLOOP
   Supply Air Path Node,Outlet Node,2,BREAK_ROOM_1_Z15_TERMINALINLET,BREAK_ROOM_1_Z15_AIRLOOP
 Supply Air Path,16,MECHANICAL_1_Z16,MECHANICAL_1_Z16_AIRLOOP
   #Components on Supply Air Path,1
   Supply Air Path Component,1,AIRLOOPHVAC:ZONESPLITTER,MECHANICAL_1_Z16_SUPPLYSPLITTER,MECHANICAL_1_Z16_AIRLOOP
     #Outlet Nodes on Supply Air Path Component,1
     Supply Air Path Component Nodes,1,AIRLOOPHVAC:ZONESPLITTER,MECHANICAL_1_Z16_SUPPLYSPLITTER,MECHANICAL_1_Z16_ZONEEQUIPMENTINLET,MECHANICAL_1_Z16_TERMINALINLET,MECHANICAL_1_Z16_AIRLOOP
! <#Nodes on Supply Air Path>,<Number of Nodes>
! <Supply Air Path Node>,<Node Type>,<Node Count>,<Node Name>,<AirLoopHVAC Name>
#Nodes on Supply Air Path,2
   Supply Air Path Node,Inlet Node,1,MECHANICAL_1_Z16_ZONEEQUIPMENTINLET,MECHANICAL_1_Z16_AIRLOOP
   Supply Air Path Node,Outlet Node,2,MECHANICAL_1_Z16_TERMINALINLET,MECHANICAL_1_Z16_AIRLOOP
 Supply Air Path,17,OFFICE_OPEN_1_Z17,OFFICE_OPEN_1_Z17_AIRLOOP
   #Components on Supply Air Path,1
   Supply Air Path Component,1,AIRLOOPHVAC:ZONESPLITTER,OFFICE_OPEN_1_Z17_SUPPLYSPLITTER,OFFICE_OPEN_1_Z17_AIRLOOP
     #Outlet Nodes on Supply Air Path Component,1
     Supply Air Path Component Nodes,1,AIRLOOPHVAC:ZONESPLITTER,OFFICE_OPEN_1_Z17_SUPPLYSPLITTER,OFFICE_OPEN_1_Z17_ZONEEQUIPMENTINLET,OFFICE_OPEN_1_Z17_TERMINALINLET,OFFICE_OPEN_1_Z17_AIRLOOP
! <#Nodes on Supply Air Path>,<Number of Nodes>
! <Supply Air Path Node>,<Node Type>,<Node Count>,<Node Name>,<AirLoopHVAC Name>
#Nodes on Supply Air Path,2
   Supply Air Path Node,Inlet Node,1,OFFICE_OPEN_1_Z17_ZONEEQUIPMENTINLET,OFFICE_OPEN_1_Z17_AIRLOOP
   Supply Air Path Node,Outlet Node,2,OFFICE_OPEN_1_Z17_TERMINALINLET,OFFICE_OPEN_1_Z17_AIRLOOP
 Supply Air Path,18,OFFICE_PRIVATE_1_Z18,OFFICE_PRIVATE_1_Z18_AIRLOOP
   #Components on Supply Air Path,1
   Supply Air Path Component,1,AIRLOOPHVAC:ZONESPLITTER,OFFICE_PRIVATE_1_Z18_SUPPLYSPLITTER,OFFICE_PRIVATE_1_Z18_AIRLOOP
     #Outlet Nodes on Supply Air Path Component,1
     Supply Air Path Component Nodes,1,AIRLOOPHVAC:ZONESPLITTER,OFFICE_PRIVATE_1_Z18_SUPPLYSPLITTER,OFFICE_PRIVATE_1_Z18_ZONEEQUIPMENTINLET,OFFICE_PRIVATE_1_Z18_TERMINALINLET,OFFICE_PRIVATE_1_Z18_AIRLOOP
! <#Nodes on Supply Air Path>,<Number of Nodes>
! <Supply Air Path Node>,<Node Type>,<Node Count>,<Node Name>,<AirLoopHVAC Name>
#Nodes on Supply Air Path,2
   Supply Air Path Node,Inlet Node,1,OFFICE_PRIVATE_1_Z18_ZONEEQUIPMENTINLET,OFFICE_PRIVATE_1_Z18_AIRLOOP
   Supply Air Path Node,Outlet Node,2,OFFICE_PRIVATE_1_Z18_TERMINALINLET,OFFICE_PRIVATE_1_Z18_AIRLOOP
 Supply Air Path,19,STORAGE_1_Z19,STORAGE_1_Z19_AIRLOOP
   #Components on Supply Air Path,1
   Supply Air Path Component,1,AIRLOOPHVAC:ZONESPLITTER,STORAGE_1_Z19_SUPPLYSPLITTER,STORAGE_1_Z19_AIRLOOP
     #Outlet Nodes on Supply Air Path Component,1
     Supply Air Path Component Nodes,1,AIRLOOPHVAC:ZONESPLITTER,STORAGE_1_Z19_SUPPLYSPLITTER,STORAGE_1_Z19_ZONEEQUIPMENTINLET,STORAGE_1_Z19_TERMINALINLET,STORAGE_1_Z19_AIRLOOP
! <#Nodes on Supply Air Path>,<Number of Nodes>
! <Supply Air Path Node>,<Node Type>,<Node Count>,<Node Name>,<AirLoopHVAC Name>
#Nodes on Supply Air Path,2
   Supply Air Path Node,Inlet Node,1,STORAGE_1_Z19_ZONEEQUIPMENTINLET,STORAGE_1_Z19_AIRLOOP
   Supply Air Path Node,Outlet Node,2,STORAGE_1_Z19_TERMINALINLET,STORAGE_1_Z19_AIRLOOP
 Supply Air Path,20,OFFICE_OPEN_1_2_Z20,OFFICE_OPEN_1_2_Z20_AIRLOOP
   #Components on Supply Air Path,1
   Supply Air Path Component,1,AIRLOOPHVAC:ZONESPLITTER,OFFICE_OPEN_1_2_Z20_SUPPLYSPLITTER,OFFICE_OPEN_1_2_Z20_AIRLOOP
     #Outlet Nodes on Supply Air Path Component,1
     Supply Air Path Component Nodes,1,AIRLOOPHVAC:ZONESPLITTER,OFFICE_OPEN_1_2_Z20_SUPPLYSPLITTER,OFFICE_OPEN_1_2_Z20_ZONEEQUIPMENTINLET,OFFICE_OPEN_1_2_Z20_TERMINALINLET,OFFICE_OPEN_1_2_Z20_AIRLOOP
! <#Nodes on Supply Air Path>,<Number of Nodes>
! <Supply Air Path Node>,<Node Type>,<Node Count>,<Node Name>,<AirLoopHVAC Name>
#Nodes on Supply Air Path,2
   Supply Air Path Node,Inlet Node,1,OFFICE_OPEN_1_2_Z20_ZONEEQUIPMENTINLET,OFFICE_OPEN_1_2_Z20_AIRLOOP
   Supply Air Path Node,Outlet Node,2,OFFICE_OPEN_1_2_Z20_TERMINALINLET,OFFICE_OPEN_1_2_Z20_AIRLOOP
 Supply Air Path,21,OFFICE_OPEN_1_3_Z21,OFFICE_OPEN_1_3_Z21_AIRLOOP
   #Components on Supply Air Path,1
   Supply Air Path Component,1,AIRLOOPHVAC:ZONESPLITTER,OFFICE_OPEN_1_3_Z21_SUPPLYSPLITTER,OFFICE_OPEN_1_3_Z21_AIRLOOP
     #Outlet Nodes on Supply Air Path Component,1
     Supply Air Path Component Nodes,1,AIRLOOPHVAC:ZONESPLITTER,OFFICE_OPEN_1_3_Z21_SUPPLYSPLITTER,OFFICE_OPEN_1_3_Z21_ZONEEQUIPMENTINLET,OFFICE_OPEN_1_3_Z21_TERMINALINLET,OFFICE_OPEN_1_3_Z21_AIRLOOP
! <#Nodes on Supply Air Path>,<Number of Nodes>
! <Supply Air Path Node>,<Node Type>,<Node Count>,<Node Name>,<AirLoopHVAC Name>
#Nodes on Supply Air Path,2
   Supply Air Path Node,Inlet Node,1,OFFICE_OPEN_1_3_Z21_ZONEEQUIPMENTINLET,OFFICE_OPEN_1_3_Z21_AIRLOOP
   Supply Air Path Node,Outlet Node,2,OFFICE_OPEN_1_3_Z21_TERMINALINLET,OFFICE_OPEN_1_3_Z21_AIRLOOP
 Supply Air Path,22,OFFICE_OPEN_1_4_Z22,OFFICE_OPEN_1_4_Z22_AIRLOOP
   #Components on Supply Air Path,1
   Supply Air Path Component,1,AIRLOOPHVAC:ZONESPLITTER,OFFICE_OPEN_1_4_Z22_SUPPLYSPLITTER,OFFICE_OPEN_1_4_Z22_AIRLOOP
     #Outlet Nodes on Supply Air Path Component,1
     Supply Air Path Component Nodes,1,AIRLOOPHVAC:ZONESPLITTER,OFFICE_OPEN_1_4_Z22_SUPPLYSPLITTER,OFFICE_OPEN_1_4_Z22_ZONEEQUIPMENTINLET,OFFICE_OPEN_1_4_Z22_TERMINALINLET,OFFICE_OPEN_1_4_Z22_AIRLOOP
! <#Nodes on Supply Air Path>,<Number of Nodes>
! <Supply Air Path Node>,<Node Type>,<Node Count>,<Node Name>,<AirLoopHVAC Name>
#Nodes on Supply Air Path,2
   Supply Air Path Node,Inlet Node,1,OFFICE_OPEN_1_4_Z22_ZONEEQUIPMENTINLET,OFFICE_OPEN_1_4_Z22_AIRLOOP
   Supply Air Path Node,Outlet Node,2,OFFICE_OPEN_1_4_Z22_TERMINALINLET,OFFICE_OPEN_1_4_Z22_AIRLOOP
 Supply Air Path,23,OFFICE_OPEN_1_5_Z23,OFFICE_OPEN_1_5_Z23_AIRLOOP
   #Components on Supply Air Path,1
   Supply Air Path Component,1,AIRLOOPHVAC:ZONESPLITTER,OFFICE_OPEN_1_5_Z23_SUPPLYSPLITTER,OFFICE_OPEN_1_5_Z23_AIRLOOP
     #Outlet Nodes on Supply Air Path Component,1
     Supply Air Path Component Nodes,1,AIRLOOPHVAC:ZONESPLITTER,OFFICE_OPEN_1_5_Z23_SUPPLYSPLITTER,OFFICE_OPEN_1_5_Z23_ZONEEQUIPMENTINLET,OFFICE_OPEN_1_5_Z23_TERMINALINLET,OFFICE_OPEN_1_5_Z23_AIRLOOP
! <#Nodes on Supply Air Path>,<Number of Nodes>
! <Supply Air Path Node>,<Node Type>,<Node Count>,<Node Name>,<AirLoopHVAC Name>
#Nodes on Supply Air Path,2
   Supply Air Path Node,Inlet Node,1,OFFICE_OPEN_1_5_Z23_ZONEEQUIPMENTINLET,OFFICE_OPEN_1_5_Z23_AIRLOOP
   Supply Air Path Node,Outlet Node,2,OFFICE_OPEN_1_5_Z23_TERMINALINLET,OFFICE_OPEN_1_5_Z23_AIRLOOP
 Supply Air Path,24,OFFICE_OPEN_1_6_Z24,OFFICE_OPEN_1_6_Z24_AIRLOOP
   #Components on Supply Air Path,1
   Supply Air Path Component,1,AIRLOOPHVAC:ZONESPLITTER,OFFICE_OPEN_1_6_Z24_SUPPLYSPLITTER,OFFICE_OPEN_1_6_Z24_AIRLOOP
     #Outlet Nodes on Supply Air Path Component,1
     Supply Air Path Component Nodes,1,AIRLOOPHVAC:ZONESPLITTER,OFFICE_OPEN_1_6_Z24_SUPPLYSPLITTER,OFFICE_OPEN_1_6_Z24_ZONEEQUIPMENTINLET,OFFICE_OPEN_1_6_Z24_TERMINALINLET,OFFICE_OPEN_1_6_Z24_AIRLOOP
! <#Nodes on Supply Air Path>,<Number of Nodes>
! <Supply Air Path Node>,<Node Type>,<Node Count>,<Node Name>,<AirLoopHVAC Name>
#Nodes on Supply Air Path,2
   Supply Air Path Node,Inlet Node,1,OFFICE_OPEN_1_6_Z24_ZONEEQUIPMENTINLET,OFFICE_OPEN_1_6_Z24_AIRLOOP
   Supply Air Path Node,Outlet Node,2,OFFICE_OPEN_1_6_Z24_TERMINALINLET,OFFICE_OPEN_1_6_Z24_AIRLOOP
 Supply Air Path,25,OFFICE_OPEN_1_7_Z25,OFFICE_OPEN_1_7_Z25_AIRLOOP
   #Components on Supply Air Path,1
   Supply Air Path Component,1,AIRLOOPHVAC:ZONESPLITTER,OFFICE_OPEN_1_7_Z25_SUPPLYSPLITTER,OFFICE_OPEN_1_7_Z25_AIRLOOP
     #Outlet Nodes on Supply Air Path Component,1
     Supply Air Path Component Nodes,1,AIRLOOPHVAC:ZONESPLITTER,OFFICE_OPEN_1_7_Z25_SUPPLYSPLITTER,OFFICE_OPEN_1_7_Z25_ZONEEQUIPMENTINLET,OFFICE_OPEN_1_7_Z25_TERMINALINLET,OFFICE_OPEN_1_7_Z25_AIRLOOP
! <#Nodes on Supply Air Path>,<Number of Nodes>
! <Supply Air Path Node>,<Node Type>,<Node Count>,<Node Name>,<AirLoopHVAC Name>
#Nodes on Supply Air Path,2
   Supply Air Path Node,Inlet Node,1,OFFICE_OPEN_1_7_Z25_ZONEEQUIPMENTINLET,OFFICE_OPEN_1_7_Z25_AIRLOOP
   Supply Air Path Node,Outlet Node,2,OFFICE_OPEN_1_7_Z25_TERMINALINLET,OFFICE_OPEN_1_7_Z25_AIRLOOP
 Supply Air Path,26,LOBBY_2_Z26,LOBBY_2_Z26_AIRLOOP
   #Components on Supply Air Path,1
   Supply Air Path Component,1,AIRLOOPHVAC:ZONESPLITTER,LOBBY_2_Z26_SUPPLYSPLITTER,LOBBY_2_Z26_AIRLOOP
     #Outlet Nodes on Supply Air Path Component,1
     Supply Air Path Component Nodes,1,AIRLOOPHVAC:ZONESPLITTER,LOBBY_2_Z26_SUPPLYSPLITTER,LOBBY_2_Z26_ZONEEQUIPMENTINLET,LOBBY_2_Z26_TERMINALINLET,LOBBY_2_Z26_AIRLOOP
! <#Nodes on Supply Air Path>,<Number of Nodes>
! <Supply Air Path Node>,<Node Type>,<Node Count>,<Node Name>,<AirLoopHVAC Name>
#Nodes on Supply Air Path,2
   Supply Air Path Node,Inlet Node,1,LOBBY_2_Z26_ZONEEQUIPMENTINLET,LOBBY_2_Z26_AIRLOOP
   Supply Air Path Node,Outlet Node,2,LOBBY_2_Z26_TERMINALINLET,LOBBY_2_Z26_AIRLOOP
 Supply Air Path,27,CONFERENCE_2_Z27,CONFERENCE_2_Z27_AIRLOOP
   #Components on Supply Air Path,1
   Supply Air Path Component,1,AIRLOOPHVAC:ZONESPLITTER,CONFERENCE_2_Z27_SUPPLYSPLITTER,CONFERENCE_2_Z27_AIRLOOP
     #Outlet Nodes on Supply Air Path Component,1
     Supply Air Path Component Nodes,1,AIRLOOPHVAC:ZONESPLITTER,CONFERENCE_2_Z27_SUPPLYSPLITTER,CONFERENCE_2_Z27_ZONEEQUIPMENTINLET,CONFERENCE_2_Z27_TERMINALINLET,CONFERENCE_2_Z27_AIRLOOP
! <#Nodes on Supply Air Path>,<Number of Nodes>
! <Supply Air Path Node>,<Node Type>,<Node Count>,<Node Name>,<AirLoopHVAC Name>
#Nodes on Supply Air Path,2
   Supply Air Path Node,Inlet Node,1,CONFERENCE_2_Z27_ZONEEQUIPMENTINLET,CONFERENCE_2_Z27_AIRLOOP
   Supply Air Path Node,Outlet Node,2,CONFERENCE_2_Z27_TERMINALINLET,CONFERENCE_2_Z27_AIRLOOP
 Supply Air Path,28,BREAK_ROOM_2_Z28,BREAK_ROOM_2_Z28_AIRLOOP
   #Components on Supply Air Path,1
   Supply Air Path Component,1,AIRLOOPHVAC:ZONESPLITTER,BREAK_ROOM_2_Z28_SUPPLYSPLITTER,BREAK_ROOM_2_Z28_AIRLOOP
     #Outlet Nodes on Supply Air Path Component,1
     Supply Air Path Component Nodes,1,AIRLOOPHVAC:ZONESPLITTER,BREAK_ROOM_2_Z28_SUPPLYSPLITTER,BREAK_ROOM_2_Z28_ZONEEQUIPMENTINLET,BREAK_ROOM_2_Z28_TERMINALINLET,BREAK_ROOM_2_Z28_AIRLOOP
! <#Nodes on Supply Air Path>,<Number of Nodes>
! <Supply Air Path Node>,<Node Type>,<Node Count>,<Node Name>,<AirLoopHVAC Name>
#Nodes on Supply Air Path,2
   Supply Air Path Node,Inlet Node,1,BREAK_ROOM_2_Z28_ZONEEQUIPMENTINLET,BREAK_ROOM_2_Z28_AIRLOOP
   Supply Air Path Node,Outlet Node,2,BREAK_ROOM_2_Z28_TERMINALINLET,BREAK_ROOM_2_Z28_AIRLOOP
 Supply Air Path,29,MECHANICAL_2_Z29,MECHANICAL_2_Z29_AIRLOOP
   #Components on Supply Air Path,1
   Supply Air Path Component,1,AIRLOOPHVAC:ZONESPLITTER,MECHANICAL_2_Z29_SUPPLYSPLITTER,MECHANICAL_2_Z29_AIRLOOP
     #Outlet Nodes on Supply Air Path Component,1
     Supply Air Path Component Nodes,1,AIRLOOPHVAC:ZONESPLITTER,MECHANICAL_2_Z29_SUPPLYSPLITTER,MECHANICAL_2_Z29_ZONEEQUIPMENTINLET,MECHANICAL_2_Z29_TERMINALINLET,MECHANICAL_2_Z29_AIRLOOP
! <#Nodes on Supply Air Path>,<Number of Nodes>
! <Supply Air Path Node>,<Node Type>,<Node Count>,<Node Name>,<AirLoopHVAC Name>
#Nodes on Supply Air Path,2
   Supply Air Path Node,Inlet Node,1,MECHANICAL_2_Z29_ZONEEQUIPMENTINLET,MECHANICAL_2_Z29_AIRLOOP
   Supply Air Path Node,Outlet Node,2,MECHANICAL_2_Z29_TERMINALINLET,MECHANICAL_2_Z29_AIRLOOP
 Supply Air Path,30,OFFICE_OPEN_2_Z30,OFFICE_OPEN_2_Z30_AIRLOOP
   #Components on Supply Air Path,1
   Supply Air Path Component,1,AIRLOOPHVAC:ZONESPLITTER,OFFICE_OPEN_2_Z30_SUPPLYSPLITTER,OFFICE_OPEN_2_Z30_AIRLOOP
     #Outlet Nodes on Supply Air Path Component,1
     Supply Air Path Component Nodes,1,AIRLOOPHVAC:ZONESPLITTER,OFFICE_OPEN_2_Z30_SUPPLYSPLITTER,OFFICE_OPEN_2_Z30_ZONEEQUIPMENTINLET,OFFICE_OPEN_2_Z30_TERMINALINLET,OFFICE_OPEN_2_Z30_AIRLOOP
! <#Nodes on Supply Air Path>,<Number of Nodes>
! <Supply Air Path Node>,<Node Type>,<Node Count>,<Node Name>,<AirLoopHVAC Name>
#Nodes on Supply Air Path,2
   Supply Air Path Node,Inlet Node,1,OFFICE_OPEN_2_Z30_ZONEEQUIPMENTINLET,OFFICE_OPEN_2_Z30_AIRLOOP
   Supply Air Path Node,Outlet Node,2,OFFICE_OPEN_2_Z30_TERMINALINLET,OFFICE_OPEN_2_Z30_AIRLOOP
 Supply Air Path,31,OFFICE_PRIVATE_2_Z31,OFFICE_PRIVATE_2_Z31_AIRLOOP
   #Components on Supply Air Path,1
   Supply Air Path Component,1,AIRLOOPHVAC:ZONESPLITTER,OFFICE_PRIVATE_2_Z31_SUPPLYSPLITTER,OFFICE_PRIVATE_2_Z31_AIRLOOP
     #Outlet Nodes on Supply Air Path Component,1
     Supply Air Path Component Nodes,1,AIRLOOPHVAC:ZONESPLITTER,OFFICE_PRIVATE_2_Z31_SUPPLYSPLITTER,OFFICE_PRIVATE_2_Z31_ZONEEQUIPMENTINLET,OFFICE_PRIVATE_2_Z31_TERMINALINLET,OFFICE_PRIVATE_2_Z31_AIRLOOP
! <#Nodes on Supply Air Path>,<Number of Nodes>
! <Supply Air Path Node>,<Node Type>,<Node Count>,<Node Name>,<AirLoopHVAC Name>
#Nodes on Supply Air Path,2
   Supply Air Path Node,Inlet Node,1,OFFICE_PRIVATE_2_Z31_ZONEEQUIPMENTINLET,OFFICE_PRIVATE_2_Z31_AIRLOOP
   Supply Air Path Node,Outlet Node,2,OFFICE_PRIVATE_2_Z31_TERMINALINLET,OFFICE_PRIVATE_2_Z31_AIRLOOP
 Supply Air Path,32,STORAGE_2_Z32,STORAGE_2_Z32_AIRLOOP
   #Components on Supply Air Path,1
   Supply Air Path Component,1,AIRLOOPHVAC:ZONESPLITTER,STORAGE_2_Z32_SUPPLYSPLITTER,STORAGE_2_Z32_AIRLOOP
     #Outlet Nodes on Supply Air Path Component,1
     Supply Air Path Component Nodes,1,AIRLOOPHVAC:ZONESPLITTER,STORAGE_2_Z32_SUPPLYSPLITTER,STORAGE_2_Z32_ZONEEQUIPMENTINLET,STORAGE_2_Z32_TERMINALINLET,STORAGE_2_Z32_AIRLOOP
! <#Nodes on Supply Air Path>,<Number of Nodes>
! <Supply Air Path Node>,<Node Type>,<Node Count>,<Node Name>,<AirLoopHVAC Name>
#Nodes on Supply Air Path,2
   Supply Air Path Node,Inlet Node,1,STORAGE_2_Z32_ZONEEQUIPMENTINLET,STORAGE_2_Z32_AIRLOOP
   Supply Air Path Node,Outlet Node,2,STORAGE_2_Z32_TERMINALINLET,STORAGE_2_Z32_AIRLOOP
 Supply Air Path,33,OFFICE_OPEN_2_2_Z33,OFFICE_OPEN_2_2_Z33_AIRLOOP
   #Components on Supply Air Path,1
   Supply Air Path Component,1,AIRLOOPHVAC:ZONESPLITTER,OFFICE_OPEN_2_2_Z33_SUPPLYSPLITTER,OFFICE_OPEN_2_2_Z33_AIRLOOP
     #Outlet Nodes on Supply Air Path Component,1
     Supply Air Path Component Nodes,1,AIRLOOPHVAC:ZONESPLITTER,OFFICE_OPEN_2_2_Z33_SUPPLYSPLITTER,OFFICE_OPEN_2_2_Z33_ZONEEQUIPMENTINLET,OFFICE_OPEN_2_2_Z33_TERMINALINLET,OFFICE_OPEN_2_2_Z33_AIRLOOP
! <#Nodes on Supply Air Path>,<Number of Nodes>
! <Supply Air Path Node>,<Node Type>,<Node Count>,<Node Name>,<AirLoopHVAC Name>
[...]
 Non-Parent Node Connection,OFFICE_OPEN_3_6_Z50_SUPPLYEQUIPMENTOUTLETNODE,FAN:VARIABLEVOLUME,OFFICE_OPEN_3_6_Z50_SUPPLYFAN,Outlet,1
 Non-Parent Node Connection,OFFICE_OPEN_3_7_Z51_HEATC-FANNODE,FAN:VARIABLEVOLUME,OFFICE_OPEN_3_7_Z51_SUPPLYFAN,Inlet,1
 Non-Parent Node Connection,OFFICE_OPEN_3_7_Z51_SUPPLYEQUIPMENTOUTLETNODE,FAN:VARIABLEVOLUME,OFFICE_OPEN_3_7_Z51_SUPPLYFAN,Outlet,1
 Non-Parent Node Connection,LOBBY_4_Z52_HEATC-FANNODE,FAN:VARIABLEVOLUME,LOBBY_4_Z52_SUPPLYFAN,Inlet,1
 Non-Parent Node Connection,LOBBY_4_Z52_SUPPLYEQUIPMENTOUTLETNODE,FAN:VARIABLEVOLUME,LOBBY_4_Z52_SUPPLYFAN,Outlet,1
 Non-Parent Node Connection,CONFERENCE_4_Z53_HEATC-FANNODE,FAN:VARIABLEVOLUME,CONFERENCE_4_Z53_SUPPLYFAN,Inlet,1
 Non-Parent Node Connection,CONFERENCE_4_Z53_SUPPLYEQUIPMENTOUTLETNODE,FAN:VARIABLEVOLUME,CONFERENCE_4_Z53_SUPPLYFAN,Outlet,1
 Non-Parent Node Connection,BREAK_ROOM_4_Z54_HEATC-FANNODE,FAN:VARIABLEVOLUME,BREAK_ROOM_4_Z54_SUPPLYFAN,Inlet,1
 Non-Parent Node Connection,BREAK_ROOM_4_Z54_SUPPLYEQUIPMENTOUTLETNODE,FAN:VARIABLEVOLUME,BREAK_ROOM_4_Z54_SUPPLYFAN,Outlet,1
 Non-Parent Node Connection,MECHANICAL_4_Z55_HEATC-FANNODE,FAN:VARIABLEVOLUME,MECHANICAL_4_Z55_SUPPLYFAN,Inlet,1
 Non-Parent Node Connection,MECHANICAL_4_Z55_SUPPLYEQUIPMENTOUTLETNODE,FAN:VARIABLEVOLUME,MECHANICAL_4_Z55_SUPPLYFAN,Outlet,1
 Non-Parent Node Connection,OFFICE_OPEN_4_Z56_HEATC-FANNODE,FAN:VARIABLEVOLUME,OFFICE_OPEN_4_Z56_SUPPLYFAN,Inlet,1
 Non-Parent Node Connection,OFFICE_OPEN_4_Z56_SUPPLYEQUIPMENTOUTLETNODE,FAN:VARIABLEVOLUME,OFFICE_OPEN_4_Z56_SUPPLYFAN,Outlet,1
 Non-Parent Node Connection,OFFICE_PRIVATE_4_Z57_HEATC-FANNODE,FAN:VARIABLEVOLUME,OFFICE_PRIVATE_4_Z57_SUPPLYFAN,Inlet,1
 Non-Parent Node Connection,OFFICE_PRIVATE_4_Z57_SUPPLYEQUIPMENTOUTLETNODE,FAN:VARIABLEVOLUME,OFFICE_PRIVATE_4_Z57_SUPPLYFAN,Outlet,1
 Non-Parent Node Connection,STORAGE_4_Z58_HEATC-FANNODE,FAN:VARIABLEVOLUME,STORAGE_4_Z58_SUPPLYFAN,Inlet,1
 Non-Parent Node Connection,STORAGE_4_Z58_SUPPLYEQUIPMENTOUTLETNODE,FAN:VARIABLEVOLUME,STORAGE_4_Z58_SUPPLYFAN,Outlet,1
 Non-Parent Node Connection,OFFICE_OPEN_4_2_Z59_HEATC-FANNODE,FAN:VARIABLEVOLUME,OFFICE_OPEN_4_2_Z59_SUPPLYFAN,Inlet,1
 Non-Parent Node Connection,OFFICE_OPEN_4_2_Z59_SUPPLYEQUIPMENTOUTLETNODE,FAN:VARIABLEVOLUME,OFFICE_OPEN_4_2_Z59_SUPPLYFAN,Outlet,1
 Non-Parent Node Connection,OFFICE_OPEN_4_3_Z60_HEATC-FANNODE,FAN:VARIABLEVOLUME,OFFICE_OPEN_4_3_Z60_SUPPLYFAN,Inlet,1
 Non-Parent Node Connection,OFFICE_OPEN_4_3_Z60_SUPPLYEQUIPMENTOUTLETNODE,FAN:VARIABLEVOLUME,OFFICE_OPEN_4_3_Z60_SUPPLYFAN,Outlet,1
 Non-Parent Node Connection,OFFICE_OPEN_4_4_Z61_HEATC-FANNODE,FAN:VARIABLEVOLUME,OFFICE_OPEN_4_4_Z61_SUPPLYFAN,Inlet,1
 Non-Parent Node Connection,OFFICE_OPEN_4_4_Z61_SUPPLYEQUIPMENTOUTLETNODE,FAN:VARIABLEVOLUME,OFFICE_OPEN_4_4_Z61_SUPPLYFAN,Outlet,1
 Non-Parent Node Connection,OFFICE_OPEN_4_5_Z62_HEATC-FANNODE,FAN:VARIABLEVOLUME,OFFICE_OPEN_4_5_Z62_SUPPLYFAN,Inlet,1
 Non-Parent Node Connection,OFFICE_OPEN_4_5_Z62_SUPPLYEQUIPMENTOUTLETNODE,FAN:VARIABLEVOLUME,OFFICE_OPEN_4_5_Z62_SUPPLYFAN,Outlet,1
 Non-Parent Node Connection,OFFICE_OPEN_4_6_Z63_HEATC-FANNODE,FAN:VARIABLEVOLUME,OFFICE_OPEN_4_6_Z63_SUPPLYFAN,Inlet,1
 Non-Parent Node Connection,OFFICE_OPEN_4_6_Z63_SUPPLYEQUIPMENTOUTLETNODE,FAN:VARIABLEVOLUME,OFFICE_OPEN_4_6_Z63_SUPPLYFAN,Outlet,1
 Non-Parent Node Connection,OFFICE_OPEN_4_7_Z64_HEATC-FANNODE,FAN:VARIABLEVOLUME,OFFICE_OPEN_4_7_Z64_SUPPLYFAN,Inlet,1
 Non-Parent Node Connection,OFFICE_OPEN_4_7_Z64_SUPPLYEQUIPMENTOUTLETNODE,FAN:VARIABLEVOLUME,OFFICE_OPEN_4_7_Z64_SUPPLYFAN,Outlet,1
 Non-Parent Node Connection,LOBBY_0_Z1_SUPPLYINLET,COIL:COOLING:DX:SINGLESPEED,LOBBY_0_Z1_COOLINGCOILDX,Inlet,1
 Non-Parent Node Connection,LOBBY_0_Z1_COOLC-HEATCNODE,COIL:COOLING:DX:SINGLESPEED,LOBBY_0_Z1_COOLINGCOILDX,Outlet,1
 Non-Parent Node Connection,CONFERENCE_0_Z2_SUPPLYINLET,COIL:COOLING:DX:SINGLESPEED,CONFERENCE_0_Z2_COOLINGCOILDX,Inlet,1
 Non-Parent Node Connection,CONFERENCE_0_Z2_COOLC-HEATCNODE,COIL:COOLING:DX:SINGLESPEED,CONFERENCE_0_Z2_COOLINGCOILDX,Outlet,1
 Non-Parent Node Connection,BREAK_ROOM_0_Z3_SUPPLYINLET,COIL:COOLING:DX:SINGLESPEED,BREAK_ROOM_0_Z3_COOLINGCOILDX,Inlet,1
 Non-Parent Node Connection,BREAK_ROOM_0_Z3_COOLC-HEATCNODE,COIL:COOLING:DX:SINGLESPEED,BREAK_ROOM_0_Z3_COOLINGCOILDX,Outlet,1
 Non-Parent Node Connection,MECHANICAL_0_Z4_SUPPLYINLET,COIL:COOLING:DX:SINGLESPEED,MECHANICAL_0_Z4_COOLINGCOILDX,Inlet,1
 Non-Parent Node Connection,MECHANICAL_0_Z4_COOLC-HEATCNODE,COIL:COOLING:DX:SINGLESPEED,MECHANICAL_0_Z4_COOLINGCOILDX,Outlet,1
 Non-Parent Node Connection,OFFICE_OPEN_0_Z5_SUPPLYINLET,COIL:COOLING:DX:SINGLESPEED,OFFICE_OPEN_0_Z5_COOLINGCOILDX,Inlet,1
 Non-Parent Node Connection,OFFICE_OPEN_0_Z5_COOLC-HEATCNODE,COIL:COOLING:DX:SINGLESPEED,OFFICE_OPEN_0_Z5_COOLINGCOILDX,Outlet,1
 Non-Parent Node Connection,OFFICE_PRIVATE_0_Z6_SUPPLYINLET,COIL:COOLING:DX:SINGLESPEED,OFFICE_PRIVATE_0_Z6_COOLINGCOILDX,Inlet,1
 Non-Parent Node Connection,OFFICE_PRIVATE_0_Z6_COOLC-HEATCNODE,COIL:COOLING:DX:SINGLESPEED,OFFICE_PRIVATE_0_Z6_COOLINGCOILDX,Outlet,1
 Non-Parent Node Connection,STORAGE_0_Z7_SUPPLYINLET,COIL:COOLING:DX:SINGLESPEED,STORAGE_0_Z7_COOLINGCOILDX,Inlet,1
 Non-Parent Node Connection,STORAGE_0_Z7_COOLC-HEATCNODE,COIL:COOLING:DX:SINGLESPEED,STORAGE_0_Z7_COOLINGCOILDX,Outlet,1
 Non-Parent Node Connection,OFFICE_OPEN_0_2_Z8_SUPPLYINLET,COIL:COOLING:DX:SINGLESPEED,OFFICE_OPEN_0_2_Z8_COOLINGCOILDX,Inlet,1
 Non-Parent Node Connection,OFFICE_OPEN_0_2_Z8_COOLC-HEATCNODE,COIL:COOLING:DX:SINGLESPEED,OFFICE_OPEN_0_2_Z8_COOLINGCOILDX,Outlet,1
 Non-Parent Node Connection,OFFICE_OPEN_0_3_Z9_SUPPLYINLET,COIL:COOLING:DX:SINGLESPEED,OFFICE_OPEN_0_3_Z9_COOLINGCOILDX,Inlet,1
 Non-Parent Node Connection,OFFICE_OPEN_0_3_Z9_COOLC-HEATCNODE,COIL:COOLING:DX:SINGLESPEED,OFFICE_OPEN_0_3_Z9_COOLINGCOILDX,Outlet,1
 Non-Parent Node Connection,OFFICE_OPEN_0_4_Z10_SUPPLYINLET,COIL:COOLING:DX:SINGLESPEED,OFFICE_OPEN_0_4_Z10_COOLINGCOILDX,Inlet,1
 Non-Parent Node Connection,OFFICE_OPEN_0_4_Z10_COOLC-HEATCNODE,COIL:COOLING:DX:SINGLESPEED,OFFICE_OPEN_0_4_Z10_COOLINGCOILDX,Outlet,1
 Non-Parent Node Connection,OFFICE_OPEN_0_5_Z11_SUPPLYINLET,COIL:COOLING:DX:SINGLESPEED,OFFICE_OPEN_0_5_Z11_COOLINGCOILDX,Inlet,1
 Non-Parent Node Connection,OFFICE_OPEN_0_5_Z11_COOLC-HEATCNODE,COIL:COOLING:DX:SINGLESPEED,OFFICE_OPEN_0_5_Z11_COOLINGCOILDX,Outlet,1
 Non-Parent Node Connection,OFFICE_OPEN_0_6_Z12_SUPPLYINLET,COIL:COOLING:DX:SINGLESPEED,OFFICE_OPEN_0_6_Z12_COOLINGCOILDX,Inlet,1
 Non-Parent Node Connection,OFFICE_OPEN_0_6_Z12_COOLC-HEATCNODE,COIL:COOLING:DX:SINGLESPEED,OFFICE_OPEN_0_6_Z12_COOLINGCOILDX,Outlet,1
 Non-Parent Node Connection,LOBBY_1_Z13_SUPPLYINLET,COIL:COOLING:DX:SINGLESPEED,LOBBY_1_Z13_COOLINGCOILDX,Inlet,1
 Non-Parent Node Connection,LOBBY_1_Z13_COOLC-HEATCNODE,COIL:COOLING:DX:SINGLESPEED,LOBBY_1_Z13_COOLINGCOILDX,Outlet,1
 Non-Parent Node Connection,CONFERENCE_1_Z14_SUPPLYINLET,COIL:COOLING:DX:SINGLESPEED,CONFERENCE_1_Z14_COOLINGCOILDX,Inlet,1
 Non-Parent Node Connection,CONFERENCE_1_Z14_COOLC-HEATCNODE,COIL:COOLING:DX:SINGLESPEED,CONFERENCE_1_Z14_COOLINGCOILDX,Outlet,1
 Non-Parent Node Connection,BREAK_ROOM_1_Z15_SUPPLYINLET,COIL:COOLING:DX:SINGLESPEED,BREAK_ROOM_1_Z15_COOLINGCOILDX,Inlet,1
 Non-Parent Node Connection,BREAK_ROOM_1_Z15_COOLC-HEATCNODE,COIL:COOLING:DX:SINGLESPEED,BREAK_ROOM_1_Z15_COOLINGCOILDX,Outlet,1
 Non-Parent Node Connection,MECHANICAL_1_Z16_SUPPLYINLET,COIL:COOLING:DX:SINGLESPEED,MECHANICAL_1_Z16_COOLINGCOILDX,Inlet,1
 Non-Parent Node Connection,MECHANICAL_1_Z16_COOLC-HEATCNODE,COIL:COOLING:DX:SINGLESPEED,MECHANICAL_1_Z16_COOLINGCOILDX,Outlet,1
 Non-Parent Node Connection,OFFICE_OPEN_1_Z17_SUPPLYINLET,COIL:COOLING:DX:SINGLESPEED,OFFICE_OPEN_1_Z17_COOLINGCOILDX,Inlet,1
 Non-Parent Node Connection,OFFICE_OPEN_1_Z17_COOLC-HEATCNODE,COIL:COOLING:DX:SINGLESPEED,OFFICE_OPEN_1_Z17_COOLINGCOILDX,Outlet,1
 Non-Parent Node Connection,OFFICE_PRIVATE_1_Z18_SUPPLYINLET,COIL:COOLING:DX:SINGLESPEED,OFFICE_PRIVATE_1_Z18_COOLINGCOILDX,Inlet,1
 Non-Parent Node Connection,OFFICE_PRIVATE_1_Z18_COOLC-HEATCNODE,COIL:COOLING:DX:SINGLESPEED,OFFICE_PRIVATE_1_Z18_COOLINGCOILDX,Outlet,1
 Non-Parent Node Connection,STORAGE_1_Z19_SUPPLYINLET,COIL:COOLING:DX:SINGLESPEED,STORAGE_1_Z19_COOLINGCOILDX,Inlet,1
 Non-Parent Node Connection,STORAGE_1_Z19_COOLC-HEATCNODE,COIL:COOLING:DX:SINGLESPEED,STORAGE_1_Z19_COOLINGCOILDX,Outlet,1
 Non-Parent Node Connection,OFFICE_OPEN_1_2_Z20_SUPPLYINLET,COIL:COOLING:DX:SINGLESPEED,OFFICE_OPEN_1_2_Z20_COOLINGCOILDX,Inlet,1
 Non-Parent Node Connection,OFFICE_OPEN_1_2_Z20_COOLC-HEATCNODE,COIL:COOLING:DX:SINGLESPEED,OFFICE_OPEN_1_2_Z20_COOLINGCOILDX,Outlet,1
 Non-Parent Node Connection,OFFICE_OPEN_1_3_Z21_SUPPLYINLET,COIL:COOLING:DX:SINGLESPEED,OFFICE_OPEN_1_3_Z21_COOLINGCOILDX,Inlet,1
 Non-Parent Node Connection,OFFICE_OPEN_1_3_Z21_COOLC-HEATCNODE,COIL:COOLING:DX:SINGLESPEED,OFFICE_OPEN_1_3_Z21_COOLINGCOILDX,Outlet,1
 Non-Parent Node Connection,OFFICE_OPEN_1_4_Z22_SUPPLYINLET,COIL:COOLING:DX:SINGLESPEED,OFFICE_OPEN_1_4_Z22_COOLINGCOILDX,Inlet,1
 Non-Parent Node Connection,OFFICE_OPEN_1_4_Z22_COOLC-HEATCNODE,COIL:COOLING:DX:SINGLESPEED,OFFICE_OPEN_1_4_Z22_COOLINGCOILDX,Outlet,1
 Non-Parent Node Connection,OFFICE_OPEN_1_5_Z23_SUPPLYINLET,COIL:COOLING:DX:SINGLESPEED,OFFICE_OPEN_1_5_Z23_COOLINGCOILDX,Inlet,1
 Non-Parent Node Connection,OFFICE_OPEN_1_5_Z23_COOLC-HEATCNODE,COIL:COOLING:DX:SINGLESPEED,OFFICE_OPEN_1_5_Z23_COOLINGCOILDX,Outlet,1
 Non-Parent Node Connection,OFFICE_OPEN_1_6_Z24_SUPPLYINLET,COIL:COOLING:DX:SINGLESPEED,OFFICE_OPEN_1_6_Z24_COOLINGCOILDX,Inlet,1
 Non-Parent Node Connection,OFFICE_OPEN_1_6_Z24_COOLC-HEATCNODE,COIL:COOLING:DX:SINGLESPEED,OFFICE_OPEN_1_6_Z24_COOLINGCOILDX,Outlet,1
 Non-Parent Node Connection,OFFICE_OPEN_1_7_Z25_SUPPLYINLET,COIL:COOLING:DX:SINGLESPEED,OFFICE_OPEN_1_7_Z25_COOLINGCOILDX,Inlet,1
 Non-Parent Node Connection,OFFICE_OPEN_1_7_Z25_COOLC-HEATCNODE,COIL:COOLING:DX:SINGLESPEED,OFFICE_OPEN_1_7_Z25_COOLINGCOILDX,Outlet,1
 Non-Parent Node Connection,LOBBY_2_Z26_SUPPLYINLET,COIL:COOLING:DX:SINGLESPEED,LOBBY_2_Z26_COOLINGCOILDX,Inlet,1
 Non-Parent Node Connection,LOBBY_2_Z26_COOLC-HEATCNODE,COIL:COOLING:DX:SINGLESPEED,LOBBY_2_Z26_COOLINGCOILDX,Outlet,1
 Non-Parent Node Connection,CONFERENCE_2_Z27_SUPPLYINLET,COIL:COOLING:DX:SINGLESPEED,CONFERENCE_2_Z27_COOLINGCOILDX,Inlet,1
 Non-Parent Node Connection,CONFERENCE_2_Z27_COOLC-HEATCNODE,COIL:COOLING:DX:SINGLESPEED,CONFERENCE_2_Z27_COOLINGCOILDX,Outlet,1
 Non-Parent Node Connection,BREAK_ROOM_2_Z28_SUPPLYINLET,COIL:COOLING:DX:SINGLESPEED,BREAK_ROOM_2_Z28_COOLINGCOILDX,Inlet,1
 Non-Parent Node Connection,BREAK_ROOM_2_Z28_COOLC-HEATCNODE,COIL:COOLING:DX:SINGLESPEED,BREAK_ROOM_2_Z28_COOLINGCOILDX,Outlet,1
 Non-Parent Node Connection,MECHANICAL_2_Z29_SUPPLYINLET,COIL:COOLING:DX:SINGLESPEED,MECHANICAL_2_Z29_COOLINGCOILDX,Inlet,1
 Non-Parent Node Connection,MECHANICAL_2_Z29_COOLC-HEATCNODE,COIL:COOLING:DX:SINGLESPEED,MECHANICAL_2_Z29_COOLINGCOILDX,Outlet,1
 Non-Parent Node Connection,OFFICE_OPEN_2_Z30_SUPPLYINLET,COIL:COOLING:DX:SINGLESPEED,OFFICE_OPEN_2_Z30_COOLINGCOILDX,Inlet,1
 Non-Parent Node Connection,OFFICE_OPEN_2_Z30_COOLC-HEATCNODE,COIL:COOLING:DX:SINGLESPEED,OFFICE_OPEN_2_Z30_COOLINGCOILDX,Outlet,1
 Non-Parent Node Connection,OFFICE_PRIVATE_2_Z31_SUPPLYINLET,COIL:COOLING:DX:SINGLESPEED,OFFICE_PRIVATE_2_Z31_COOLINGCOILDX,Inlet,1
 Non-Parent Node Connection,OFFICE_PRIVATE_2_Z31_COOLC-HEATCNODE,COIL:COOLING:DX:SINGLESPEED,OFFICE_PRIVATE_2_Z31_COOLINGCOILDX,Outlet,1
 Non-Parent Node Connection,STORAGE_2_Z32_SUPPLYINLET,COIL:COOLING:DX:SINGLESPEED,STORAGE_2_Z32_COOLINGCOILDX,Inlet,1
 Non-Parent Node Connection,STORAGE_2_Z32_COOLC-HEATCNODE,COIL:COOLING:DX:SINGLESPEED,STORAGE_2_Z32_COOLINGCOILDX,Outlet,1
 Non-Parent Node Connection,OFFICE_OPEN_2_2_Z33_SUPPLYINLET,COIL:COOLING:DX:SINGLESPEED,OFFICE_OPEN_2_2_Z33_COOLINGCOILDX,Inlet,1
 Non-Parent Node Connection,OFFICE_OPEN_2_2_Z33_COOLC-HEATCNODE,COIL:COOLING:DX:SINGLESPEED,OFFICE_OPEN_2_2_Z33_COOLINGCOILDX,Outlet,1
 Non-Parent Node Connection,OFFICE_OPEN_2_3_Z34_SUPPLYINLET,COIL:COOLING:DX:SINGLESPEED,OFFICE_OPEN_2_3_Z34_COOLINGCOILDX,Inlet,1
 Non-Parent Node Connection,OFFICE_OPEN_2_3_Z34_COOLC-HEATCNODE,COIL:COOLING:DX:SINGLESPEED,OFFICE_OPEN_2_3_Z34_COOLINGCOILDX,Outlet,1
 Non-Parent Node Connection,OFFICE_OPEN_2_4_Z35_SUPPLYINLET,COIL:COOLING:DX:SINGLESPEED,OFFICE_OPEN_2_4_Z35_COOLINGCOILDX,Inlet,1
 Non-Parent Node Connection,OFFICE_OPEN_2_4_Z35_COOLC-HEATCNODE,COIL:COOLING:DX:SINGLESPEED,OFFICE_OPEN_2_4_Z35_COOLINGCOILDX,Outlet,1
 Non-Parent Node Connection,OFFICE_OPEN_2_5_Z36_SUPPLYINLET,COIL:COOLING:DX:SINGLESPEED,OFFICE_OPEN_2_5_Z36_COOLINGCOILDX,Inlet,1
 Non-Parent Node Connection,OFFICE_OPEN_2_5_Z36_COOLC-HEATCNODE,COIL:COOLING:DX:SINGLESPEED,OFFICE_OPEN_2_5_Z36_COOLINGCOILDX,Outlet,1
 Non-Parent Node Connection,OFFICE_OPEN_2_6_Z37_SUPPLYINLET,COIL:COOLING:DX:SINGLESPEED,OFFICE_OPEN_2_6_Z37_COOLINGCOILDX,Inlet,1
 Non-Parent Node Connection,OFFICE_OPEN_2_6_Z37_COOLC-HEATCNODE,COIL:COOLING:DX:SINGLESPEED,OFFICE_OPEN_2_6_Z37_COOLINGCOILDX,Outlet,1
 Non-Parent Node Connection,OFFICE_OPEN_2_7_Z38_SUPPLYINLET,COIL:COOLING:DX:SINGLESPEED,OFFICE_OPEN_2_7_Z38_COOLINGCOILDX,Inlet,1
 Non-Parent Node Connection,OFFICE_OPEN_2_7_Z38_COOLC-HEATCNODE,COIL:COOLING:DX:SINGLESPEED,OFFICE_OPEN_2_7_Z38_COOLINGCOILDX,Outlet,1
 Non-Parent Node Connection,LOBBY_3_Z39_SUPPLYINLET,COIL:COOLING:DX:SINGLESPEED,LOBBY_3_Z39_COOLINGCOILDX,Inlet,1
 Non-Parent Node Connection,LOBBY_3_Z39_COOLC-HEATCNODE,COIL:COOLING:DX:SINGLESPEED,LOBBY_3_Z39_COOLINGCOILDX,Outlet,1
 Non-Parent Node Connection,CONFERENCE_3_Z40_SUPPLYINLET,COIL:COOLING:DX:SINGLESPEED,CONFERENCE_3_Z40_COOLINGCOILDX,Inlet,1
 Non-Parent Node Connection,CONFERENCE_3_Z40_COOLC-HEATCNODE,COIL:COOLING:DX:SINGLESPEED,CONFERENCE_3_Z40_COOLINGCOILDX,Outlet,1
 Non-Parent Node Connection,BREAK_ROOM_3_Z41_SUPPLYINLET,COIL:COOLING:DX:SINGLESPEED,BREAK_ROOM_3_Z41_COOLINGCOILDX,Inlet,1
 Non-Parent Node Connection,BREAK_ROOM_3_Z41_COOLC-HEATCNODE,COIL:COOLING:DX:SINGLESPEED,BREAK_ROOM_3_Z41_COOLINGCOILDX,Outlet,1
 Non-Parent Node Connection,MECHANICAL_3_Z42_SUPPLYINLET,COIL:COOLING:DX:SINGLESPEED,MECHANICAL_3_Z42_COOLINGCOILDX,Inlet,1
 Non-Parent Node Connection,MECHANICAL_3_Z42_COOLC-HEATCNODE,COIL:COOLING:DX:SINGLESPEED,MECHANICAL_3_Z42_COOLINGCOILDX,Outlet,1
 Non-Parent Node Connection,OFFICE_OPEN_3_Z43_SUPPLYINLET,COIL:COOLING:DX:SINGLESPEED,OFFICE_OPEN_3_Z43_COOLINGCOILDX,Inlet,1
 Non-Parent Node Connection,OFFICE_OPEN_3_Z43_COOLC-HEATCNODE,COIL:COOLING:DX:SINGLESPEED,OFFICE_OPEN_3_Z43_COOLINGCOILDX,Outlet,1
 Non-Parent Node Connection,OFFICE_PRIVATE_3_Z44_SUPPLYINLET,COIL:COOLING:DX:SINGLESPEED,OFFICE_PRIVATE_3_Z44_COOLINGCOILDX,Inlet,1
 Non-Parent Node Connection,OFFICE_PRIVATE_3_Z44_COOLC-HEATCNODE,COIL:COOLING:DX:SINGLESPEED,OFFICE_PRIVATE_3_Z44_COOLINGCOILDX,Outlet,1
 Non-Parent Node Connection,STORAGE_3_Z45_SUPPLYINLET,COIL:COOLING:DX:SINGLESPEED,STORAGE_3_Z45_COOLINGCOILDX,Inlet,1
 Non-Parent Node Connection,STORAGE_3_Z45_COOLC-HEATCNODE,COIL:COOLING:DX:SINGLESPEED,STORAGE_3_Z45_COOLINGCOILDX,Outlet,1
 Non-Parent Node Connection,OFFICE_OPEN_3_2_Z46_SUPPLYINLET,COIL:COOLING:DX:SINGLESPEED,OFFICE_OPEN_3_2_Z46_COOLINGCOILDX,Inlet,1
 Non-Parent Node Connection,OFFICE_OPEN_3_2_Z46_COOLC-HEATCNODE,COIL:COOLING:DX:SINGLESPEED,OFFICE_OPEN_3_2_Z46_COOLINGCOILDX,Outlet,1
 Non-Parent Node Connection,OFFICE_OPEN_3_3_Z47_SUPPLYINLET,COIL:COOLING:DX:SINGLESPEED,OFFICE_OPEN_3_3_Z47_COOLINGCOILDX,Inlet,1
 Non-Parent Node Connection,OFFICE_OPEN_3_3_Z47_COOLC-HEATCNODE,COIL:COOLING:DX:SINGLESPEED,OFFICE_OPEN_3_3_Z47_COOLINGCOILDX,Outlet,1
 Non-Parent Node Connection,OFFICE_OPEN_3_4_Z48_SUPPLYINLET,COIL:COOLING:DX:SINGLESPEED,OFFICE_OPEN_3_4_Z48_COOLINGCOILDX,Inlet,1
 Non-Parent Node Connection,OFFICE_OPEN_3_4_Z48_COOLC-HEATCNODE,COIL:COOLING:DX:SINGLESPEED,OFFICE_OPEN_3_4_Z48_COOLINGCOILDX,Outlet,1
 Non-Parent Node Connection,OFFICE_OPEN_3_5_Z49_SUPPLYINLET,COIL:COOLING:DX:SINGLESPEED,OFFICE_OPEN_3_5_Z49_COOLINGCOILDX,Inlet,1
 Non-Parent Node Connection,OFFICE_OPEN_3_5_Z49_COOLC-HEATCNODE,COIL:COOLING:DX:SINGLESPEED,OFFICE_OPEN_3_5_Z49_COOLINGCOILDX,Outlet,1
 Non-Parent Node Connection,OFFICE_OPEN_3_6_Z50_SUPPLYINLET,COIL:COOLING:DX:SINGLESPEED,OFFICE_OPEN_3_6_Z50_COOLINGCOILDX,Inlet,1
 Non-Parent Node Connection,OFFICE_OPEN_3_6_Z50_COOLC-HEATCNODE,COIL:COOLING:DX:SINGLESPEED,OFFICE_OPEN_3_6_Z50_COOLINGCOILDX,Outlet,1
 Non-Parent Node Connection,OFFICE_OPEN_3_7_Z51_SUPPLYINLET,COIL:COOLING:DX:SINGLESPEED,OFFICE_OPEN_3_7_Z51_COOLINGCOILDX,Inlet,1
 Non-Parent Node Connection,OFFICE_OPEN_3_7_Z51_COOLC-HEATCNODE,COIL:COOLING:DX:SINGLESPEED,OFFICE_OPEN_3_7_Z51_COOLINGCOILDX,Outlet,1
 Non-Parent Node Connection,LOBBY_4_Z52_SUPPLYINLET,COIL:COOLING:DX:SINGLESPEED,LOBBY_4_Z52_COOLINGCOILDX,Inlet,1
 Non-Parent Node Connection,LOBBY_4_Z52_COOLC-HEATCNODE,COIL:COOLING:DX:SINGLESPEED,LOBBY_4_Z52_COOLINGCOILDX,Outlet,1
 Non-Parent Node Connection,CONFERENCE_4_Z53_SUPPLYINLET,COIL:COOLING:DX:SINGLESPEED,CONFERENCE_4_Z53_COOLINGCOILDX,Inlet,1
 Non-Parent Node Connection,CONFERENCE_4_Z53_COOLC-HEATCNODE,COIL:COOLING:DX:SINGLESPEED,CONFERENCE_4_Z53_COOLINGCOILDX,Outlet,1
 Non-Parent Node Connection,BREAK_ROOM_4_Z54_SUPPLYINLET,COIL:COOLING:DX:SINGLESPEED,BREAK_ROOM_4_Z54_COOLINGCOILDX,Inlet,1
 Non-Parent Node Connection,BREAK_ROOM_4_Z54_COOLC-HEATCNODE,COIL:COOLING:DX:SINGLESPEED,BREAK_ROOM_4_Z54_COOLINGCOILDX,Outlet,1
 Non-Parent Node Connection,MECHANICAL_4_Z55_SUPPLYINLET,COIL:COOLING:DX:SINGLESPEED,MECHANICAL_4_Z55_COOLINGCOILDX,Inlet,1
 Non-Parent Node Connection,MECHANICAL_4_Z55_COOLC-HEATCNODE,COIL:COOLING:DX:SINGLESPEED,MECHANICAL_4_Z55_COOLINGCOILDX,Outlet,1
 Non-Parent Node Connection,OFFICE_OPEN_4_Z56_SUPPLYINLET,COIL:COOLING:DX:SINGLESPEED,OFFICE_OPEN_4_Z56_COOLINGCOILDX,Inlet,1
 Non-Parent Node Connection,OFFICE_OPEN_4_Z56_COOLC-HEATCNODE,COIL:COOLING:DX:SINGLESPEED,OFFICE_OPEN_4_Z56_COOLINGCOILDX,Outlet,1
 Non-Parent Node Connection,OFFICE_PRIVATE_4_Z57_SUPPLYINLET,COIL:COOLING:DX:SINGLESPEED,OFFICE_PRIVATE_4_Z57_COOLINGCOILDX,Inlet,1
 Non-Parent Node Connection,OFFICE_PRIVATE_4_Z57_COOLC-HEATCNODE,COIL:COOLING:DX:SINGLESPEED,OFFICE_PRIVATE_4_Z57_COOLINGCOILDX,Outlet,1
 Non-Parent Node Connection,STORAGE_4_Z58_SUPPLYINLET,COIL:COOLING:DX:SINGLESPEED,STORAGE_4_Z58_COOLINGCOILDX,Inlet,1
 Non-Parent Node Connection,STORAGE_4_Z58_COOLC-HEATCNODE,COIL:COOLING:DX:SINGLESPEED,STORAGE_4_Z58_COOLINGCOILDX,Outlet,1
 Non-Parent Node Connection,OFFICE_OPEN_4_2_Z59_SUPPLYINLET,COIL:COOLING:DX:SINGLESPEED,OFFICE_OPEN_4_2_Z59_COOLINGCOILDX,Inlet,1
 Non-Parent Node Connection,OFFICE_OPEN_4_2_Z59_COOLC-HEATCNODE,COIL:COOLING:DX:SINGLESPEED,OFFICE_OPEN_4_2_Z59_COOLINGCOILDX,Outlet,1
 Non-Parent Node Connection,OFFICE_OPEN_4_3_Z60_SUPPLYINLET,COIL:COOLING:DX:SINGLESPEED,OFFICE_OPEN_4_3_Z60_COOLINGCOILDX,Inlet,1
 Non-Parent Node Connection,OFFICE_OPEN_4_3_Z60_COOLC-HEATCNODE,COIL:COOLING:DX:SINGLESPEED,OFFICE_OPEN_4_3_Z60_COOLINGCOILDX,Outlet,1
 Non-Parent Node Connection,OFFICE_OPEN_4_4_Z61_SUPPLYINLET,COIL:COOLING:DX:SINGLESPEED,OFFICE_OPEN_4_4_Z61_COOLINGCOILDX,Inlet,1
 Non-Parent Node Connection,OFFICE_OPEN_4_4_Z61_COOLC-HEATCNODE,COIL:COOLING:DX:SINGLESPEED,OFFICE_OPEN_4_4_Z61_COOLINGCOILDX,Outlet,1
 Non-Parent Node Connection,OFFICE_OPEN_4_5_Z62_SUPPLYINLET,COIL:COOLING:DX:SINGLESPEED,OFFICE_OPEN_4_5_Z62_COOLINGCOILDX,Inlet,1
 Non-Parent Node Connection,OFFICE_OPEN_4_5_Z62_COOLC-HEATCNODE,COIL:COOLING:DX:SINGLESPEED,OFFICE_OPEN_4_5_Z62_COOLINGCOILDX,Outlet,1
 Non-Parent Node Connection,OFFICE_OPEN_4_6_Z63_SUPPLYINLET,COIL:COOLING:DX:SINGLESPEED,OFFICE_OPEN_4_6_Z63_COOLINGCOILDX,Inlet,1
 Non-Parent Node Connection,OFFICE_OPEN_4_6_Z63_COOLC-HEATCNODE,COIL:COOLING:DX:SINGLESPEED,OFFICE_OPEN_4_6_Z63_COOLINGCOILDX,Outlet,1
 Non-Parent Node Connection,OFFICE_OPEN_4_7_Z64_SUPPLYINLET,COIL:COOLING:DX:SINGLESPEED,OFFICE_OPEN_4_7_Z64_COOLINGCOILDX,Inlet,1
 Non-Parent Node Connection,OFFICE_OPEN_4_7_Z64_COOLC-HEATCNODE,COIL:COOLING:DX:SINGLESPEED,OFFICE_OPEN_4_7_Z64_COOLINGCOILDX,Outlet,1
