Program Version,EnergyPlus, Version 24.2.0-94a887817b, YMD=2025.11.03 21:32,
   ** Warning ** Site:GroundTemperature:BuildingSurface: Some values fall outside the range of 15-25C.
   **   ~~~   ** These values may be inappropriate.  Please consult the Input Output Reference for more details.
   ** Warning ** Weather file location will be used rather than entered (IDF) Location object.
   **   ~~~   ** ..Location object=SITE
   **   ~~~   ** ..Weather File Location=Chicago Ohare Intl Ap IL USA TMY3 WMO#=725300
   **   ~~~   ** ..due to location differences, Latitude difference=[0.10] degrees, Longitude difference=[0.28] degrees.
   **   ~~~   ** ..Time Zone difference=[2.0] hour(s), Elevation difference=[1910.00] percent, [191.00] meters.
   ** Warning ** ProcessScheduleInput: Schedule:Compact="BREAK_ROOM_LIGHTING" has missing day types in Through=12/31
   **   ~~~   ** Last "For" field=FOR: WEEKENDS
   **   ~~~   ** Missing day types="Holiday","SummerDesignDay","WinterDesignDay","CustomDay1","CustomDay2"
   **   ~~~   ** Missing day types will have 0.0 as Schedule Values
   ** Warning ** ProcessScheduleInput: Schedule:Compact="BREAK_ROOM_EQUIPMENT" has missing day types in Through=12/31
   **   ~~~   ** Last "For" field=FOR: WEEKENDS
   **   ~~~   ** Missing day types="Holiday","SummerDesignDay","WinterDesignDay","CustomDay1","CustomDay2"
   **   ~~~   ** Missing day types will have 0.0 as Schedule Values
   ** Warning ** ProcessScheduleInput: Schedule:Compact="CONFERENCE_OCCUPANCY" has missing day types in Through=12/31
   **   ~~~   ** Last "For" field=FOR: WEEKENDS
   **   ~~~   ** Missing day types="Holiday","SummerDesignDay","WinterDesignDay","CustomDay1","CustomDay2"
   **   ~~~   ** Missing day types will have 0.0 as Schedule Values
   ** Warning ** ProcessScheduleInput: Schedule:Compact="CONFERENCE_LIGHTING" has missing day types in Through=12/31
   **   ~~~   ** Last "For" field=FOR: WEEKENDS
   **   ~~~   ** Missing day types="Holiday","SummerDesignDay","WinterDesignDay","CustomDay1","CustomDay2"
   **   ~~~   ** Missing day types will have 0.0 as Schedule Values
   ** Warning ** ProcessScheduleInput: Schedule:Compact="CONFERENCE_EQUIPMENT" has missing day types in Through=12/31
   **   ~~~   ** Last "For" field=FOR: WEEKENDS
   **   ~~~   ** Missing day types="Holiday","SummerDesignDay","WinterDesignDay","CustomDay1","CustomDay2"
   **   ~~~   ** Missing day types will have 0.0 as Schedule Values
   ** Warning ** ProcessScheduleInput: Schedule:Compact="LOBBY_LIGHTING" has missing day types in Through=12/31
   **   ~~~   ** Last "For" field=FOR: WEEKENDS
   **   ~~~   ** Missing day types="Holiday","SummerDesignDay","WinterDesignDay","CustomDay1","CustomDay2"
   **   ~~~   ** Missing day types will have 0.0 as Schedule Values
   ** Warning ** ProcessScheduleInput: Schedule:Compact="LOBBY_EQUIPMENT" has missing day types in Through=12/31
   **   ~~~   ** Last "For" field=FOR: WEEKENDS
   **   ~~~   ** Missing day types="Holiday","SummerDesignDay","WinterDesignDay","CustomDay1","CustomDay2"
   **   ~~~   ** Missing day types will have 0.0 as Schedule Values
   ** Warning ** ProcessScheduleInput: Schedule:Compact="MECHANICAL_LIGHTING" has missing day types in Through=12/31
   **   ~~~   ** Last "For" field=FOR: WEEKENDS
   **   ~~~   ** Missing day types="Holiday","SummerDesignDay","WinterDesignDay","CustomDay1","CustomDay2"
   **   ~~~   ** Missing day types will have 0.0 as Schedule Values
   ** Warning ** ProcessScheduleInput: Schedule:Compact="MECHANICAL_EQUIPMENT" has missing day types in Through=12/31
   **   ~~~   ** Last "For" field=FOR: WEEKENDS
   **   ~~~   ** Missing day types="Holiday","SummerDesignDay","WinterDesignDay","CustomDay1","CustomDay2"
   **   ~~~   ** Missing day types will have 0.0 as Schedule Values
   ** Warning ** ProcessScheduleInput: Schedule:Compact="OFFICE_OPEN_OCCUPANCY" has missing day types in Through=12/31
   **   ~~~   ** Last "For" field=FOR: WEEKENDS
   **   ~~~   ** Missing day types="Holiday","SummerDesignDay","WinterDesignDay","CustomDay1","CustomDay2"
   **   ~~~   ** Missing day types will have 0.0 as Schedule Values
   ** Warning ** ProcessScheduleInput: Schedule:Compact="OFFICE_OPEN_LIGHTING" has missing day types in Through=12/31
   **   ~~~   ** Last "For" field=FOR: WEEKENDS
   **   ~~~   ** Missing day types="Holiday","SummerDesignDay","WinterDesignDay","CustomDay1","CustomDay2"
   **   ~~~   ** Missing day types will have 0.0 as Schedule Values
   ** Warning ** ProcessScheduleInput: Schedule:Compact="OFFICE_OPEN_EQUIPMENT" has missing day types in Through=12/31
   **   ~~~   ** Last "For" field=FOR: WEEKENDS
   **   ~~~   ** Missing day types="Holiday","SummerDesignDay","WinterDesignDay","CustomDay1","CustomDay2"
   **   ~~~   ** Missing day types will have 0.0 as Schedule Values
   ** Warning ** ProcessScheduleInput: Schedule:Compact="STORAGE_LIGHTING" has missing day types in Through=12/31
   **   ~~~   ** Last "For" field=FOR: WEEKENDS
   **   ~~~   ** Missing day types="Holiday","SummerDesignDay","WinterDesignDay","CustomDay1","CustomDay2"
   **   ~~~   ** Missing day types will have 0.0 as Schedule Values
   ** Warning ** ProcessScheduleInput: Schedule:Compact="STORAGE_EQUIPMENT" has missing day types in Through=12/31
   **   ~~~   ** Last "For" field=FOR: WEEKENDS
   **   ~~~   ** Missing day types="Holiday","SummerDesignDay","WinterDesignDay","CustomDay1","CustomDay2"
   **   ~~~   ** Missing day types will have 0.0 as Schedule Values
   ** Warning ** GetVertices: Floor is upside down! Tilt angle=[0.0], should be near 180, Surface="LOBBY_0_FLOOR", in Zone="LOBBY_0".
   **   ~~~   ** Automatic fix is attempted.
   ** Warning ** GetVertices: Roof/Ceiling is upside down! Tilt angle=[180.0], should be near 0, Surface="LOBBY_0_CEILING", in Zone="LOBBY_0".
   **   ~~~   ** Automatic fix is attempted.
   ** Warning ** GetVertices: Floor is upside down! Tilt angle=[0.0], should be near 180, Surface="CONFERENCE_0_FLOOR", in Zone="CONFERENCE_0".
   **   ~~~   ** Automatic fix is attempted.
   ** Warning ** GetVertices: Roof/Ceiling is upside down! Tilt angle=[180.0], should be near 0, Surface="CONFERENCE_0_CEILING", in Zone="CONFERENCE_0".
   **   ~~~   ** Automatic fix is attempted.
   ** Warning ** GetVertices: Floor is upside down! Tilt angle=[0.0], should be near 180, Surface="BREAK_ROOM_0_FLOOR", in Zone="BREAK_ROOM_0".
   **   ~~~   ** Automatic fix is attempted.
   ** Warning ** GetVertices: Roof/Ceiling is upside down! Tilt angle=[180.0], should be near 0, Surface="BREAK_ROOM_0_CEILING", in Zone="BREAK_ROOM_0".
   **   ~~~   ** Automatic fix is attempted.
   ** Warning ** GetVertices: Floor is upside down! Tilt angle=[0.0], should be near 180, Surface="MECHANICAL_0_FLOOR", in Zone="MECHANICAL_0".
   **   ~~~   ** Automatic fix is attempted.
   ** Warning ** GetVertices: Roof/Ceiling is upside down! Tilt angle=[180.0], should be near 0, Surface="MECHANICAL_0_CEILING", in Zone="MECHANICAL_0".
   **   ~~~   ** Automatic fix is attempted.
   ** Warning ** GetVertices: Floor is upside down! Tilt angle=[0.0], should be near 180, Surface="OFFICE_OPEN_0_FLOOR", in Zone="OFFICE_OPEN_0".
   **   ~~~   ** Automatic fix is attempted.
   ** Warning ** GetVertices: Roof/Ceiling is upside down! Tilt angle=[180.0], should be near 0, Surface="OFFICE_OPEN_0_CEILING", in Zone="OFFICE_OPEN_0".
   **   ~~~   ** Automatic fix is attempted.
   ** Warning ** GetVertices: Floor is upside down! Tilt angle=[0.0], should be near 180, Surface="OFFICE_PRIVATE_0_FLOOR", in Zone="OFFICE_PRIVATE_0".
   **   ~~~   ** Automatic fix is attempted.
   ** Warning ** GetVertices: Roof/Ceiling is upside down! Tilt angle=[180.0], should be near 0, Surface="OFFICE_PRIVATE_0_CEILING", in Zone="OFFICE_PRIVATE_0".
   **   ~~~   ** Automatic fix is attempted.
   ** Warning ** GetVertices: Floor is upside down! Tilt angle=[0.0], should be near 180, Surface="STORAGE_0_FLOOR", in Zone="STORAGE_0".
   **   ~~~   ** Automatic fix is attempted.
   ** Warning ** GetVertices: Roof/Ceiling is upside down! Tilt angle=[180.0], should be near 0, Surface="STORAGE_0_CEILING", in Zone="STORAGE_0".
   **   ~~~   ** Automatic fix is attempted.
   ** Warning ** GetVertices: Floor is upside down! Tilt angle=[0.0], should be near 180, Surface="OFFICE_OPEN_0_2_FLOOR", in Zone="OFFICE_OPEN_0_2".
   **   ~~~   ** Automatic fix is attempted.
   ** Warning ** GetVertices: Roof/Ceiling is upside down! Tilt angle=[180.0], should be near 0, Surface="OFFICE_OPEN_0_2_CEILING", in Zone="OFFICE_OPEN_0_2".
   **   ~~~   ** Automatic fix is attempted.
   ** Warning ** GetVertices: Floor is upside down! Tilt angle=[0.0], should be near 180, Surface="OFFICE_OPEN_0_3_FLOOR", in Zone="OFFICE_OPEN_0_3".
   **   ~~~   ** Automatic fix is attempted.
   ** Warning ** GetVertices: Roof/Ceiling is upside down! Tilt angle=[180.0], should be near 0, Surface="OFFICE_OPEN_0_3_CEILING", in Zone="OFFICE_OPEN_0_3".
   **   ~~~   ** Automatic fix is attempted.
   ** Warning ** GetVertices: Floor is upside down! Tilt angle=[0.0], should be near 180, Surface="OFFICE_OPEN_0_4_FLOOR", in Zone="OFFICE_OPEN_0_4".
   **   ~~~   ** Automatic fix is attempted.
   ** Warning ** GetVertices: Roof/Ceiling is upside down! Tilt angle=[180.0], should be near 0, Surface="OFFICE_OPEN_0_4_CEILING", in Zone="OFFICE_OPEN_0_4".
   **   ~~~   ** Automatic fix is attempted.
   ** Warning ** GetVertices: Floor is upside down! Tilt angle=[0.0], should be near 180, Surface="OFFICE_OPEN_0_5_FLOOR", in Zone="OFFICE_OPEN_0_5".
   **   ~~~   ** Automatic fix is attempted.
   ** Warning ** GetVertices: Roof/Ceiling is upside down! Tilt angle=[180.0], should be near 0, Surface="OFFICE_OPEN_0_5_CEILING", in Zone="OFFICE_OPEN_0_5".
   **   ~~~   ** Automatic fix is attempted.
   ** Warning ** GetVertices: Floor is upside down! Tilt angle=[0.0], should be near 180, Surface="OFFICE_OPEN_0_6_FLOOR", in Zone="OFFICE_OPEN_0_6".
   **   ~~~   ** Automatic fix is attempted.
   ** Warning ** GetVertices: Roof/Ceiling is upside down! Tilt angle=[180.0], should be near 0, Surface="OFFICE_OPEN_0_6_CEILING", in Zone="OFFICE_OPEN_0_6".
   **   ~~~   ** Automatic fix is attempted.
   ** Warning ** GetVertices: Floor is upside down! Tilt angle=[0.0], should be near 180, Surface="OFFICE_OPEN_0_7_FLOOR", in Zone="OFFICE_OPEN_0_7".
   **   ~~~   ** Automatic fix is attempted.
   ** Warning ** GetVertices: Roof/Ceiling is upside down! Tilt angle=[180.0], should be near 0, Surface="OFFICE_OPEN_0_7_CEILING", in Zone="OFFICE_OPEN_0_7".
   **   ~~~   ** Automatic fix is attempted.
   ** Warning ** GetVertices: Floor is upside down! Tilt angle=[0.0], should be near 180, Surface="LOBBY_1_FLOOR", in Zone="LOBBY_1".
   **   ~~~   ** Automatic fix is attempted.
   ** Warning ** GetVertices: Roof/Ceiling is upside down! Tilt angle=[180.0], should be near 0, Surface="LOBBY_1_CEILING", in Zone="LOBBY_1".
   **   ~~~   ** Automatic fix is attempted.
   ** Warning ** GetVertices: Floor is upside down! Tilt angle=[0.0], should be near 180, Surface="CONFERENCE_1_FLOOR", in Zone="CONFERENCE_1".
   **   ~~~   ** Automatic fix is attempted.
   ** Warning ** GetVertices: Roof/Ceiling is upside down! Tilt angle=[180.0], should be near 0, Surface="CONFERENCE_1_CEILING", in Zone="CONFERENCE_1".
   **   ~~~   ** Automatic fix is attempted.
   ** Warning ** GetVertices: Floor is upside down! Tilt angle=[0.0], should be near 180, Surface="BREAK_ROOM_1_FLOOR", in Zone="BREAK_ROOM_1".
   **   ~~~   ** Automatic fix is attempted.
   ** Warning ** GetVertices: Roof/Ceiling is upside down! Tilt angle=[180.0], should be near 0, Surface="BREAK_ROOM_1_CEILING", in Zone="BREAK_ROOM_1".
   **   ~~~   ** Automatic fix is attempted.
   ** Warning ** GetVertices: Floor is upside down! Tilt angle=[0.0], should be near 180, Surface="MECHANICAL_1_FLOOR", in Zone="MECHANICAL_1".
   **   ~~~   ** Automatic fix is attempted.
   ** Warning ** GetVertices: Roof/Ceiling is upside down! Tilt angle=[180.0], should be near 0, Surface="MECHANICAL_1_CEILING", in Zone="MECHANICAL_1".
   **   ~~~   ** Automatic fix is attempted.
   ** Warning ** GetVertices: Floor is upside down! Tilt angle=[0.0], should be near 180, Surface="OFFICE_OPEN_1_FLOOR", in Zone="OFFICE_OPEN_1".
   **   ~~~   ** Automatic fix is attempted.
   ** Warning ** GetVertices: Roof/Ceiling is upside down! Tilt angle=[180.0], should be near 0, Surface="OFFICE_OPEN_1_CEILING", in Zone="OFFICE_OPEN_1".
   **   ~~~   ** Automatic fix is attempted.
   ** Warning ** GetVertices: Floor is upside down! Tilt angle=[0.0], should be near 180, Surface="OFFICE_PRIVATE_1_FLOOR", in Zone="OFFICE_PRIVATE_1".
   **   ~~~   ** Automatic fix is attempted.
   ** Warning ** GetVertices: Roof/Ceiling is upside down! Tilt angle=[180.0], should be near 0, Surface="OFFICE_PRIVATE_1_CEILING", in Zone="OFFICE_PRIVATE_1".
   **   ~~~   ** Automatic fix is attempted.
   ** Warning ** GetVertices: Floor is upside down! Tilt angle=[0.0], should be near 180, Surface="STORAGE_1_FLOOR", in Zone="STORAGE_1".
   **   ~~~   ** Automatic fix is attempted.
   ** Warning ** GetVertices: Roof/Ceiling is upside down! Tilt angle=[180.0], should be near 0, Surface="STORAGE_1_CEILING", in Zone="STORAGE_1".
   **   ~~~   ** Automatic fix is attempted.
   ** Warning ** GetVertices: Floor is upside down! Tilt angle=[0.0], should be near 180, Surface="OFFICE_OPEN_1_2_FLOOR", in Zone="OFFICE_OPEN_1_2".
   **   ~~~   ** Automatic fix is attempted.
   ** Warning ** GetVertices: Roof/Ceiling is upside down! Tilt angle=[180.0], should be near 0, Surface="OFFICE_OPEN_1_2_CEILING", in Zone="OFFICE_OPEN_1_2".
   **   ~~~   ** Automatic fix is attempted.
   ** Warning ** GetVertices: Floor is upside down! Tilt angle=[0.0], should be near 180, Surface="OFFICE_OPEN_1_3_FLOOR", in Zone="OFFICE_OPEN_1_3".
   **   ~~~   ** Automatic fix is attempted.
   ** Warning ** GetVertices: Roof/Ceiling is upside down! Tilt angle=[180.0], should be near 0, Surface="OFFICE_OPEN_1_3_CEILING", in Zone="OFFICE_OPEN_1_3".
   **   ~~~   ** Automatic fix is attempted.
   ** Warning ** GetVertices: Floor is upside down! Tilt angle=[0.0], should be near 180, Surface="OFFICE_OPEN_1_4_FLOOR", in Zone="OFFICE_OPEN_1_4".
   **   ~~~   ** Automatic fix is attempted.
   ** Warning ** GetVertices: Roof/Ceiling is upside down! Tilt angle=[180.0], should be near 0, Surface="OFFICE_OPEN_1_4_CEILING", in Zone="OFFICE_OPEN_1_4".
   **   ~~~   ** Automatic fix is attempted.
   ** Warning ** GetVertices: Floor is upside down! Tilt angle=[0.0], should be near 180, Surface="OFFICE_OPEN_1_5_FLOOR", in Zone="OFFICE_OPEN_1_5".
   **   ~~~   ** Automatic fix is attempted.
   ** Warning ** GetVertices: Roof/Ceiling is upside down! Tilt angle=[180.0], should be near 0, Surface="OFFICE_OPEN_1_5_CEILING", in Zone="OFFICE_OPEN_1_5".
   **   ~~~   ** Automatic fix is attempted.
   ** Warning ** GetVertices: Floor is upside down! Tilt angle=[0.0], should be near 180, Surface="OFFICE_OPEN_1_6_FLOOR", in Zone="OFFICE_OPEN_1_6".
   **   ~~~   ** Automatic fix is attempted.
   ** Warning ** GetVertices: Roof/Ceiling is upside down! Tilt angle=[180.0], should be near 0, Surface="OFFICE_OPEN_1_6_CEILING", in Zone="OFFICE_OPEN_1_6".
   **   ~~~   ** Automatic fix is attempted.
   ** Warning ** GetVertices: Floor is upside down! Tilt angle=[0.0], should be near 180, Surface="OFFICE_OPEN_1_7_FLOOR", in Zone="OFFICE_OPEN_1_7".
   **   ~~~   ** Automatic fix is attempted.
   ** Warning ** GetVertices: Roof/Ceiling is upside down! Tilt angle=[180.0], should be near 0, Surface="OFFICE_OPEN_1_7_CEILING", in Zone="OFFICE_OPEN_1_7".
   **   ~~~   ** Automatic fix is attempted.
   ** Warning ** GetVertices: Floor is upside down! Tilt angle=[0.0], should be near 180, Surface="LOBBY_2_FLOOR", in Zone="LOBBY_2".
   **   ~~~   ** Automatic fix is attempted.
   ** Warning ** GetVertices: Roof/Ceiling is upside down! Tilt angle=[180.0], should be near 0, Surface="LOBBY_2_CEILING", in Zone="LOBBY_2".
   **   ~~~   ** Automatic fix is attempted.
   ** Warning ** GetVertices: Floor is upside down! Tilt angle=[0.0], should be near 180, Surface="CONFERENCE_2_FLOOR", in Zone="CONFERENCE_2".
   **   ~~~   ** Automatic fix is attempted.
   ** Warning ** GetVertices: Roof/Ceiling is upside down! Tilt angle=[180.0], should be near 0, Surface="CONFERENCE_2_CEILING", in Zone="CONFERENCE_2".
   **   ~~~   ** Automatic fix is attempted.
   ** Warning ** GetVertices: Floor is upside down! Tilt angle=[0.0], should be near 180, Surface="BREAK_ROOM_2_FLOOR", in Zone="BREAK_ROOM_2".
   **   ~~~   ** Automatic fix is attempted.
   ** Warning ** GetVertices: Roof/Ceiling is upside down! Tilt angle=[180.0], should be near 0, Surface="BREAK_ROOM_2_CEILING", in Zone="BREAK_ROOM_2".
   **   ~~~   ** Automatic fix is attempted.
   ** Warning ** GetVertices: Floor is upside down! Tilt angle=[0.0], should be near 180, Surface="MECHANICAL_2_FLOOR", in Zone="MECHANICAL_2".
   **   ~~~   ** Automatic fix is attempted.
   ** Warning ** GetVertices: Roof/Ceiling is upside down! Tilt angle=[180.0], should be near 0, Surface="MECHANICAL_2_CEILING", in Zone="MECHANICAL_2".
   **   ~~~   ** Automatic fix is attempted.
   ** Warning ** GetVertices: Floor is upside down! Tilt angle=[0.0], should be near 180, Surface="OFFICE_OPEN_2_FLOOR", in Zone="OFFICE_OPEN_2".
   **   ~~~   ** Automatic fix is attempted.
   ** Warning ** GetVertices: Roof/Ceiling is upside down! Tilt angle=[180.0], should be near 0, Surface="OFFICE_OPEN_2_CEILING", in Zone="OFFICE_OPEN_2".
   **   ~~~   ** Automatic fix is attempted.
   ** Warning ** GetVertices: Floor is upside down! Tilt angle=[0.0], should be near 180, Surface="OFFICE_PRIVATE_2_FLOOR", in Zone="OFFICE_PRIVATE_2".
   **   ~~~   ** Automatic fix is attempted.
   ** Warning ** GetVertices: Roof/Ceiling is upside down! Tilt angle=[180.0], should be near 0, Surface="OFFICE_PRIVATE_2_CEILING", in Zone="OFFICE_PRIVATE_2".
   **   ~~~   ** Automatic fix is attempted.
   ** Warning ** GetVertices: Floor is upside down! Tilt angle=[0.0], should be near 180, Surface="STORAGE_2_FLOOR", in Zone="STORAGE_2".
   **   ~~~   ** Automatic fix is attempted.
   ** Warning ** GetVertices: Roof/Ceiling is upside down! Tilt angle=[180.0], should be near 0, Surface="STORAGE_2_CEILING", in Zone="STORAGE_2".
   **   ~~~   ** Automatic fix is attempted.
   ** Warning ** GetVertices: Floor is upside down! Tilt angle=[0.0], should be near 180, Surface="OFFICE_OPEN_2_2_FLOOR", in Zone="OFFICE_OPEN_2_2".
   **   ~~~   ** Automatic fix is attempted.
   ** Warning ** GetVertices: Roof/Ceiling is upside down! Tilt angle=[180.0], should be near 0, Surface="OFFICE_OPEN_2_2_CEILING", in Zone="OFFICE_OPEN_2_2".
   **   ~~~   ** Automatic fix is attempted.
   ** Warning ** GetVertices: Floor is upside down! Tilt angle=[0.0], should be near 180, Surface="OFFICE_OPEN_2_3_FLOOR", in Zone="OFFICE_OPEN_2_3".
   **   ~~~   ** Automatic fix is attempted.
   ** Warning ** GetVertices: Roof/Ceiling is upside down! Tilt angle=[180.0], should be near 0, Surface="OFFICE_OPEN_2_3_CEILING", in Zone="OFFICE_OPEN_2_3".
   **   ~~~   ** Automatic fix is attempted.
   ** Warning ** GetVertices: Floor is upside down! Tilt angle=[0.0], should be near 180, Surface="OFFICE_OPEN_2_4_FLOOR", in Zone="OFFICE_OPEN_2_4".
   **   ~~~   ** Automatic fix is attempted.
   ** Warning ** GetVertices: Roof/Ceiling is upside down! Tilt angle=[180.0], should be near 0, Surface="OFFICE_OPEN_2_4_CEILING", in Zone="OFFICE_OPEN_2_4".
   **   ~~~   ** Automatic fix is attempted.
   ** Warning ** GetVertices: Floor is upside down! Tilt angle=[0.0], should be near 180, Surface="OFFICE_OPEN_2_5_FLOOR", in Zone="OFFICE_OPEN_2_5".
   **   ~~~   ** Automatic fix is attempted.
   ** Warning ** GetVertices: Roof/Ceiling is upside down! Tilt angle=[180.0], should be near 0, Surface="OFFICE_OPEN_2_5_CEILING", in Zone="OFFICE_OPEN_2_5".
   **   ~~~   ** Automatic fix is attempted.
   ** Warning ** GetVertices: Floor is upside down! Tilt angle=[0.0], should be near 180, Surface="OFFICE_OPEN_2_6_FLOOR", in Zone="OFFICE_OPEN_2_6".
   **   ~~~   ** Automatic fix is attempted.
   ** Warning ** GetVertices: Roof/Ceiling is upside down! Tilt angle=[180.0], should be near 0, Surface="OFFICE_OPEN_2_6_CEILING", in Zone="OFFICE_OPEN_2_6".
   **   ~~~   ** Automatic fix is attempted.
   ** Warning ** GetVertices: Floor is upside down! Tilt angle=[0.0], should be near 180, Surface="OFFICE_OPEN_2_7_FLOOR", in Zone="OFFICE_OPEN_2_7".
   **   ~~~   ** Automatic fix is attempted.
   ** Warning ** GetVertices: Roof/Ceiling is upside down! Tilt angle=[180.0], should be near 0, Surface="OFFICE_OPEN_2_7_CEILING", in Zone="OFFICE_OPEN_2_7".
   **   ~~~   ** Automatic fix is attempted.
   ** Warning ** GetVertices: Floor is upside down! Tilt angle=[0.0], should be near 180, Surface="LOBBY_3_FLOOR", in Zone="LOBBY_3".
   **   ~~~   ** Automatic fix is attempted.
   ** Warning ** GetVertices: Roof/Ceiling is upside down! Tilt angle=[180.0], should be near 0, Surface="LOBBY_3_CEILING", in Zone="LOBBY_3".
   **   ~~~   ** Automatic fix is attempted.
   ** Warning ** GetVertices: Floor is upside down! Tilt angle=[0.0], should be near 180, Surface="CONFERENCE_3_FLOOR", in Zone="CONFERENCE_3".
   **   ~~~   ** Automatic fix is attempted.
   ** Warning ** GetVertices: Roof/Ceiling is upside down! Tilt angle=[180.0], should be near 0, Surface="CONFERENCE_3_CEILING", in Zone="CONFERENCE_3".
   **   ~~~   ** Automatic fix is attempted.
   ** Warning ** GetVertices: Floor is upside down! Tilt angle=[0.0], should be near 180, Surface="BREAK_ROOM_3_FLOOR", in Zone="BREAK_ROOM_3".
   **   ~~~   ** Automatic fix is attempted.
   ** Warning ** GetVertices: Roof/Ceiling is upside down! Tilt angle=[180.0], should be near 0, Surface="BREAK_ROOM_3_CEILING", in Zone="BREAK_ROOM_3".
   **   ~~~   ** Automatic fix is attempted.
   ** Warning ** GetVertices: Floor is upside down! Tilt angle=[0.0], should be near 180, Surface="MECHANICAL_3_FLOOR", in Zone="MECHANICAL_3".
   **   ~~~   ** Automatic fix is attempted.
   ** Warning ** GetVertices: Roof/Ceiling is upside down! Tilt angle=[180.0], should be near 0, Surface="MECHANICAL_3_CEILING", in Zone="MECHANICAL_3".
   **   ~~~   ** Automatic fix is attempted.
   ** Warning ** GetVertices: Floor is upside down! Tilt angle=[0.0], should be near 180, Surface="OFFICE_OPEN_3_FLOOR", in Zone="OFFICE_OPEN_3".
   **   ~~~   ** Automatic fix is attempted.
   ** Warning ** GetVertices: Roof/Ceiling is upside down! Tilt angle=[180.0], should be near 0, Surface="OFFICE_OPEN_3_CEILING", in Zone="OFFICE_OPEN_3".
   **   ~~~   ** Automatic fix is attempted.
   ** Warning ** GetVertices: Floor is upside down! Tilt angle=[0.0], should be near 180, Surface="OFFICE_PRIVATE_3_FLOOR", in Zone="OFFICE_PRIVATE_3".
   **   ~~~   ** Automatic fix is attempted.
   ** Warning ** GetVertices: Roof/Ceiling is upside down! Tilt angle=[180.0], should be near 0, Surface="OFFICE_PRIVATE_3_CEILING", in Zone="OFFICE_PRIVATE_3".
   **   ~~~   ** Automatic fix is attempted.
   ** Warning ** GetVertices: Floor is upside down! Tilt angle=[0.0], should be near 180, Surface="STORAGE_3_FLOOR", in Zone="STORAGE_3".
   **   ~~~   ** Automatic fix is attempted.
   ** Warning ** GetVertices: Roof/Ceiling is upside down! Tilt angle=[180.0], should be near 0, Surface="STORAGE_3_CEILING", in Zone="STORAGE_3".
   **   ~~~   ** Automatic fix is attempted.
   ** Warning ** GetVertices: Floor is upside down! Tilt angle=[0.0], should be near 180, Surface="OFFICE_OPEN_3_2_FLOOR", in Zone="OFFICE_OPEN_3_2".
   **   ~~~   ** Automatic fix is attempted.
   ** Warning ** GetVertices: Roof/Ceiling is upside down! Tilt angle=[180.0], should be near 0, Surface="OFFICE_OPEN_3_2_CEILING", in Zone="OFFICE_OPEN_3_2".
   **   ~~~   ** Automatic fix is attempted.
   ** Warning ** GetVertices: Floor is upside down! Tilt angle=[0.0], should be near 180, Surface="OFFICE_OPEN_3_3_FLOOR", in Zone="OFFICE_OPEN_3_3".
   **   ~~~   ** Automatic fix is attempted.
   ** Warning ** GetVertices: Roof/Ceiling is upside down! Tilt angle=[180.0], should be near 0, Surface="OFFICE_OPEN_3_3_CEILING", in Zone="OFFICE_OPEN_3_3".
   **   ~~~   ** Automatic fix is attempted.
   ** Warning ** GetVertices: Floor is upside down! Tilt angle=[0.0], should be near 180, Surface="OFFICE_OPEN_3_4_FLOOR", in Zone="OFFICE_OPEN_3_4".
   **   ~~~   ** Automatic fix is attempted.
   ** Warning ** GetVertices: Roof/Ceiling is upside down! Tilt angle=[180.0], should be near 0, Surface="OFFICE_OPEN_3_4_CEILING", in Zone="OFFICE_OPEN_3_4".
   **   ~~~   ** Automatic fix is attempted.
   ** Warning ** GetVertices: Floor is upside down! Tilt angle=[0.0], should be near 180, Surface="OFFICE_OPEN_3_5_FLOOR", in Zone="OFFICE_OPEN_3_5".
   **   ~~~   ** Automatic fix is attempted.
   ** Warning ** GetVertices: Roof/Ceiling is upside down! Tilt angle=[180.0], should be near 0, Surface="OFFICE_OPEN_3_5_CEILING", in Zone="OFFICE_OPEN_3_5".
   **   ~~~   ** Automatic fix is attempted.
   ** Warning ** GetVertices: Floor is upside down! Tilt angle=[0.0], should be near 180, Surface="OFFICE_OPEN_3_6_FLOOR", in Zone="OFFICE_OPEN_3_6".
   **   ~~~   ** Automatic fix is attempted.
   ** Warning ** GetVertices: Roof/Ceiling is upside down! Tilt angle=[180.0], should be near 0, Surface="OFFICE_OPEN_3_6_CEILING", in Zone="OFFICE_OPEN_3_6".
   **   ~~~   ** Automatic fix is attempted.
   ** Warning ** GetVertices: Floor is upside down! Tilt angle=[0.0], should be near 180, Surface="LOBBY_4_FLOOR", in Zone="LOBBY_4".
   **   ~~~   ** Automatic fix is attempted.
   ** Warning ** GetVertices: Roof/Ceiling is upside down! Tilt angle=[180.0], should be near 0, Surface="LOBBY_4_CEILING", in Zone="LOBBY_4".
   **   ~~~   ** Automatic fix is attempted.
   ** Warning ** GetVertices: Floor is upside down! Tilt angle=[0.0], should be near 180, Surface="CONFERENCE_4_FLOOR", in Zone="CONFERENCE_4".
   **   ~~~   ** Automatic fix is attempted.
   ** Warning ** GetVertices: Roof/Ceiling is upside down! Tilt angle=[180.0], should be near 0, Surface="CONFERENCE_4_CEILING", in Zone="CONFERENCE_4".
   **   ~~~   ** Automatic fix is attempted.
   ** Warning ** GetVertices: Floor is upside down! Tilt angle=[0.0], should be near 180, Surface="BREAK_ROOM_4_FLOOR", in Zone="BREAK_ROOM_4".
   **   ~~~   ** Automatic fix is attempted.
   ** Warning ** GetVertices: Roof/Ceiling is upside down! Tilt angle=[180.0], should be near 0, Surface="BREAK_ROOM_4_CEILING", in Zone="BREAK_ROOM_4".
   **   ~~~   ** Automatic fix is attempted.
   ** Warning ** GetVertices: Floor is upside down! Tilt angle=[0.0], should be near 180, Surface="MECHANICAL_4_FLOOR", in Zone="MECHANICAL_4".
   **   ~~~   ** Automatic fix is attempted.
   ** Warning ** GetVertices: Roof/Ceiling is upside down! Tilt angle=[180.0], should be near 0, Surface="MECHANICAL_4_CEILING", in Zone="MECHANICAL_4".
   **   ~~~   ** Automatic fix is attempted.
   ** Warning ** GetVertices: Floor is upside down! Tilt angle=[0.0], should be near 180, Surface="OFFICE_OPEN_4_FLOOR", in Zone="OFFICE_OPEN_4".
   **   ~~~   ** Automatic fix is attempted.
   ** Warning ** GetVertices: Roof/Ceiling is upside down! Tilt angle=[180.0], should be near 0, Surface="OFFICE_OPEN_4_CEILING", in Zone="OFFICE_OPEN_4".
   **   ~~~   ** Automatic fix is attempted.
   ** Warning ** GetVertices: Floor is upside down! Tilt angle=[0.0], should be near 180, Surface="OFFICE_PRIVATE_4_FLOOR", in Zone="OFFICE_PRIVATE_4".
   **   ~~~   ** Automatic fix is attempted.
   ** Warning ** GetVertices: Roof/Ceiling is upside down! Tilt angle=[180.0], should be near 0, Surface="OFFICE_PRIVATE_4_CEILING", in Zone="OFFICE_PRIVATE_4".
   **   ~~~   ** Automatic fix is attempted.
   ** Warning ** GetVertices: Floor is upside down! Tilt angle=[0.0], should be near 180, Surface="STORAGE_4_FLOOR", in Zone="STORAGE_4".
   **   ~~~   ** Automatic fix is attempted.
   ** Warning ** GetVertices: Roof/Ceiling is upside down! Tilt angle=[180.0], should be near 0, Surface="STORAGE_4_CEILING", in Zone="STORAGE_4".
   **   ~~~   ** Automatic fix is attempted.
   ** Warning ** GetVertices: Floor is upside down! Tilt angle=[0.0], should be near 180, Surface="OFFICE_OPEN_4_2_FLOOR", in Zone="OFFICE_OPEN_4_2".
   **   ~~~   ** Automatic fix is attempted.
   ** Warning ** GetVertices: Roof/Ceiling is upside down! Tilt angle=[180.0], should be near 0, Surface="OFFICE_OPEN_4_2_CEILING", in Zone="OFFICE_OPEN_4_2".
   **   ~~~   ** Automatic fix is attempted.
   ** Warning ** GetVertices: Floor is upside down! Tilt angle=[0.0], should be near 180, Surface="OFFICE_OPEN_4_3_FLOOR", in Zone="OFFICE_OPEN_4_3".
   **   ~~~   ** Automatic fix is attempted.
   ** Warning ** GetVertices: Roof/Ceiling is upside down! Tilt angle=[180.0], should be near 0, Surface="OFFICE_OPEN_4_3_CEILING", in Zone="OFFICE_OPEN_4_3".
   **   ~~~   ** Automatic fix is attempted.
   ** Warning ** GetVertices: Floor is upside down! Tilt angle=[0.0], should be near 180, Surface="OFFICE_OPEN_4_4_FLOOR", in Zone="OFFICE_OPEN_4_4".
   **   ~~~   ** Automatic fix is attempted.
   ** Warning ** GetVertices: Roof/Ceiling is upside down! Tilt angle=[180.0], should be near 0, Surface="OFFICE_OPEN_4_4_CEILING", in Zone="OFFICE_OPEN_4_4".
   **   ~~~   ** Automatic fix is attempted.
   ** Warning ** GetVertices: Floor is upside down! Tilt angle=[0.0], should be near 180, Surface="OFFICE_OPEN_4_5_FLOOR", in Zone="OFFICE_OPEN_4_5".
   **   ~~~   ** Automatic fix is attempted.
   ** Warning ** GetVertices: Roof/Ceiling is upside down! Tilt angle=[180.0], should be near 0, Surface="OFFICE_OPEN_4_5_CEILING", in Zone="OFFICE_OPEN_4_5".
   **   ~~~   ** Automatic fix is attempted.
   ** Warning ** GetVertices: Floor is upside down! Tilt angle=[0.0], should be near 180, Surface="OFFICE_OPEN_4_6_FLOOR", in Zone="OFFICE_OPEN_4_6".
   **   ~~~   ** Automatic fix is attempted.
   ** Warning ** GetVertices: Roof/Ceiling is upside down! Tilt angle=[180.0], should be near 0, Surface="OFFICE_OPEN_4_6_CEILING", in Zone="OFFICE_OPEN_4_6".
   **   ~~~   ** Automatic fix is attempted.
   ** Warning ** GetVertices: Floor is upside down! Tilt angle=[0.0], should be near 180, Surface="OFFICE_OPEN_4_7_FLOOR", in Zone="OFFICE_OPEN_4_7".
   **   ~~~   ** Automatic fix is attempted.
   ** Warning ** GetVertices: Roof/Ceiling is upside down! Tilt angle=[180.0], should be near 0, Surface="OFFICE_OPEN_4_7_CEILING", in Zone="OFFICE_OPEN_4_7".
   **   ~~~   ** Automatic fix is attempted.
   ** Warning ** Indicated Zone Volume <= 0.0 for Zone=LOBBY_0
   **   ~~~   ** The calculated Zone Volume was=-85.14
   **   ~~~   ** The simulation will continue with the Zone Volume set to 10.0 m3. 
   **   ~~~   ** ...use Output:Diagnostics,DisplayExtraWarnings; to show more details on individual zones.
   ** Warning ** Indicated Zone Volume <= 0.0 for Zone=CONFERENCE_0
   **   ~~~   ** The calculated Zone Volume was=-45.84
   **   ~~~   ** The simulation will continue with the Zone Volume set to 10.0 m3. 
   **   ~~~   ** ...use Output:Diagnostics,DisplayExtraWarnings; to show more details on individual zones.
   ** Warning ** Indicated Zone Volume <= 0.0 for Zone=BREAK_ROOM_0
   **   ~~~   ** The calculated Zone Volume was=-24.20
   **   ~~~   ** The simulation will continue with the Zone Volume set to 10.0 m3. 
   **   ~~~   ** ...use Output:Diagnostics,DisplayExtraWarnings; to show more details on individual zones.
   ** Warning ** Indicated Zone Volume <= 0.0 for Zone=MECHANICAL_0
   **   ~~~   ** The calculated Zone Volume was=-44.61
   **   ~~~   ** The simulation will continue with the Zone Volume set to 10.0 m3. 
   **   ~~~   ** ...use Output:Diagnostics,DisplayExtraWarnings; to show more details on individual zones.
   ** Warning ** Indicated Zone Volume <= 0.0 for Zone=OFFICE_OPEN_0
   **   ~~~   ** The calculated Zone Volume was=-133.33
   **   ~~~   ** The simulation will continue with the Zone Volume set to 10.0 m3. 
   **   ~~~   ** ...use Output:Diagnostics,DisplayExtraWarnings; to show more details on individual zones.
   ** Warning ** Indicated Zone Volume <= 0.0 for Zone=OFFICE_PRIVATE_0
   **   ~~~   ** The calculated Zone Volume was=-133.33
   **   ~~~   ** The simulation will continue with the Zone Volume set to 10.0 m3. 
   **   ~~~   ** ...use Output:Diagnostics,DisplayExtraWarnings; to show more details on individual zones.
   ** Warning ** Indicated Zone Volume <= 0.0 for Zone=STORAGE_0
   **   ~~~   ** The calculated Zone Volume was=-133.33
   **   ~~~   ** The simulation will continue with the Zone Volume set to 10.0 m3. 
   **   ~~~   ** ...use Output:Diagnostics,DisplayExtraWarnings; to show more details on individual zones.
   ** Warning ** Indicated Zone Volume <= 0.0 for Zone=OFFICE_OPEN_0_2
   **   ~~~   ** The calculated Zone Volume was=-105.42
   **   ~~~   ** The simulation will continue with the Zone Volume set to 10.0 m3. 
   **   ~~~   ** ...use Output:Diagnostics,DisplayExtraWarnings; to show more details on individual zones.
   ** Warning ** Indicated Zone Volume <= 0.0 for Zone=OFFICE_OPEN_0_3
   **   ~~~   ** The calculated Zone Volume was=-133.33
   **   ~~~   ** The simulation will continue with the Zone Volume set to 10.0 m3. 
   **   ~~~   ** ...use Output:Diagnostics,DisplayExtraWarnings; to show more details on individual zones.
   ** Warning ** Indicated Zone Volume <= 0.0 for Zone=OFFICE_OPEN_0_4
   **   ~~~   ** The calculated Zone Volume was=-131.90
   **   ~~~   ** The simulation will continue with the Zone Volume set to 10.0 m3. 
   **   ~~~   ** ...use Output:Diagnostics,DisplayExtraWarnings; to show more details on individual zones.
   ** Warning ** Indicated Zone Volume <= 0.0 for Zone=OFFICE_OPEN_0_5
   **   ~~~   ** The calculated Zone Volume was=-116.63
   **   ~~~   ** The simulation will continue with the Zone Volume set to 10.0 m3. 
   **   ~~~   ** ...use Output:Diagnostics,DisplayExtraWarnings; to show more details on individual zones.
   ** Warning ** Indicated Zone Volume <= 0.0 for Zone=OFFICE_OPEN_0_6
   **   ~~~   ** The calculated Zone Volume was=-133.33
   **   ~~~   ** The simulation will continue with the Zone Volume set to 10.0 m3. 
   **   ~~~   ** ...use Output:Diagnostics,DisplayExtraWarnings; to show more details on individual zones.
   ** Warning ** Indicated Zone Volume <= 0.0 for Zone=OFFICE_OPEN_0_7
   **   ~~~   ** The calculated Zone Volume was=-130.23
   **   ~~~   ** The simulation will continue with the Zone Volume set to 10.0 m3. 
   **   ~~~   ** ...use Output:Diagnostics,DisplayExtraWarnings; to show more details on individual zones.
   ** Warning ** Indicated Zone Volume <= 0.0 for Zone=LOBBY_1
   **   ~~~   ** The calculated Zone Volume was=-50.67
   **   ~~~   ** The simulation will continue with the Zone Volume set to 10.0 m3. 
   **   ~~~   ** ...use Output:Diagnostics,DisplayExtraWarnings; to show more details on individual zones.
   ** Warning ** Indicated Zone Volume <= 0.0 for Zone=CONFERENCE_1
   **   ~~~   ** The calculated Zone Volume was=-35.20
   **   ~~~   ** The simulation will continue with the Zone Volume set to 10.0 m3. 
   **   ~~~   ** ...use Output:Diagnostics,DisplayExtraWarnings; to show more details on individual zones.
   ** Warning ** Indicated Zone Volume <= 0.0 for Zone=BREAK_ROOM_1
   **   ~~~   ** The calculated Zone Volume was=-73.34
   **   ~~~   ** The simulation will continue with the Zone Volume set to 10.0 m3. 
   **   ~~~   ** ...use Output:Diagnostics,DisplayExtraWarnings; to show more details on individual zones.
   ** Warning ** Indicated Zone Volume <= 0.0 for Zone=MECHANICAL_1
   **   ~~~   ** The calculated Zone Volume was=-23.47
   **   ~~~   ** The simulation will continue with the Zone Volume set to 10.0 m3. 
   **   ~~~   ** ...use Output:Diagnostics,DisplayExtraWarnings; to show more details on individual zones.
   ** Warning ** Indicated Zone Volume <= 0.0 for Zone=OFFICE_OPEN_1
   **   ~~~   ** The calculated Zone Volume was=-125.25
   **   ~~~   ** The simulation will continue with the Zone Volume set to 10.0 m3. 
   **   ~~~   ** ...use Output:Diagnostics,DisplayExtraWarnings; to show more details on individual zones.
   ** Warning ** Indicated Zone Volume <= 0.0 for Zone=OFFICE_PRIVATE_1
   **   ~~~   ** The calculated Zone Volume was=-130.03
   **   ~~~   ** The simulation will continue with the Zone Volume set to 10.0 m3. 
   **   ~~~   ** ...use Output:Diagnostics,DisplayExtraWarnings; to show more details on individual zones.
   ** Warning ** Indicated Zone Volume <= 0.0 for Zone=STORAGE_1
   **   ~~~   ** The calculated Zone Volume was=-133.33
   **   ~~~   ** The simulation will continue with the Zone Volume set to 10.0 m3. 
   **   ~~~   ** ...use Output:Diagnostics,DisplayExtraWarnings; to show more details on individual zones.
   ** Warning ** Indicated Zone Volume <= 0.0 for Zone=OFFICE_OPEN_1_2
   **   ~~~   ** The calculated Zone Volume was=-86.46
   **   ~~~   ** The simulation will continue with the Zone Volume set to 10.0 m3. 
   **   ~~~   ** ...use Output:Diagnostics,DisplayExtraWarnings; to show more details on individual zones.
   ** Warning ** Indicated Zone Volume <= 0.0 for Zone=OFFICE_OPEN_1_3
   **   ~~~   ** The calculated Zone Volume was=-121.92
   **   ~~~   ** The simulation will continue with the Zone Volume set to 10.0 m3. 
   **   ~~~   ** ...use Output:Diagnostics,DisplayExtraWarnings; to show more details on individual zones.
   ** Warning ** Indicated Zone Volume <= 0.0 for Zone=OFFICE_OPEN_1_4
   **   ~~~   ** The calculated Zone Volume was=-133.33
   **   ~~~   ** The simulation will continue with the Zone Volume set to 10.0 m3. 
   **   ~~~   ** ...use Output:Diagnostics,DisplayExtraWarnings; to show more details on individual zones.
   ** Warning ** Indicated Zone Volume <= 0.0 for Zone=OFFICE_OPEN_1_5
   **   ~~~   ** The calculated Zone Volume was=-128.87
   **   ~~~   ** The simulation will continue with the Zone Volume set to 10.0 m3. 
   **   ~~~   ** ...use Output:Diagnostics,DisplayExtraWarnings; to show more details on individual zones.
   ** Warning ** Indicated Zone Volume <= 0.0 for Zone=OFFICE_OPEN_1_6
   **   ~~~   ** The calculated Zone Volume was=-133.33
   **   ~~~   ** The simulation will continue with the Zone Volume set to 10.0 m3. 
   **   ~~~   ** ...use Output:Diagnostics,DisplayExtraWarnings; to show more details on individual zones.
   ** Warning ** Indicated Zone Volume <= 0.0 for Zone=OFFICE_OPEN_1_7
   **   ~~~   ** The calculated Zone Volume was=-133.33
   **   ~~~   ** The simulation will continue with the Zone Volume set to 10.0 m3. 
   **   ~~~   ** ...use Output:Diagnostics,DisplayExtraWarnings; to show more details on individual zones.
   ** Warning ** Indicated Zone Volume <= 0.0 for Zone=LOBBY_2
   **   ~~~   ** The calculated Zone Volume was=-197.84
   **   ~~~   ** The simulation will continue with the Zone Volume set to 10.0 m3. 
   **   ~~~   ** ...use Output:Diagnostics,DisplayExtraWarnings; to show more details on individual zones.
   ** Warning ** Indicated Zone Volume <= 0.0 for Zone=CONFERENCE_2
   **   ~~~   ** The calculated Zone Volume was=-53.42
   **   ~~~   ** The simulation will continue with the Zone Volume set to 10.0 m3. 
   **   ~~~   ** ...use Output:Diagnostics,DisplayExtraWarnings; to show more details on individual zones.
   ** Warning ** Indicated Zone Volume <= 0.0 for Zone=BREAK_ROOM_2
   **   ~~~   ** The calculated Zone Volume was=-60.17
   **   ~~~   ** The simulation will continue with the Zone Volume set to 10.0 m3. 
   **   ~~~   ** ...use Output:Diagnostics,DisplayExtraWarnings; to show more details on individual zones.
   ** Warning ** Indicated Zone Volume <= 0.0 for Zone=MECHANICAL_2
   **   ~~~   ** The calculated Zone Volume was=-84.20
   **   ~~~   ** The simulation will continue with the Zone Volume set to 10.0 m3. 
   **   ~~~   ** ...use Output:Diagnostics,DisplayExtraWarnings; to show more details on individual zones.
   ** Warning ** Indicated Zone Volume <= 0.0 for Zone=OFFICE_OPEN_2
   **   ~~~   ** The calculated Zone Volume was=-133.33
   **   ~~~   ** The simulation will continue with the Zone Volume set to 10.0 m3. 
   **   ~~~   ** ...use Output:Diagnostics,DisplayExtraWarnings; to show more details on individual zones.
   ** Warning ** Indicated Zone Volume <= 0.0 for Zone=OFFICE_PRIVATE_2
   **   ~~~   ** The calculated Zone Volume was=-133.33
   **   ~~~   ** The simulation will continue with the Zone Volume set to 10.0 m3. 
   **   ~~~   ** ...use Output:Diagnostics,DisplayExtraWarnings; to show more details on individual zones.
   ** Warning ** Indicated Zone Volume <= 0.0 for Zone=STORAGE_2
   **   ~~~   ** The calculated Zone Volume was=-133.33
   **   ~~~   ** The simulation will continue with the Zone Volume set to 10.0 m3. 
   **   ~~~   ** ...use Output:Diagnostics,DisplayExtraWarnings; to show more details on individual zones.
   ** Warning ** Indicated Zone Volume <= 0.0 for Zone=OFFICE_OPEN_2_2
   **   ~~~   ** The calculated Zone Volume was=-133.33
   **   ~~~   ** The simulation will continue with the Zone Volume set to 10.0 m3. 
   **   ~~~   ** ...use Output:Diagnostics,DisplayExtraWarnings; to show more details on individual zones.
   ** Warning ** Indicated Zone Volume <= 0.0 for Zone=OFFICE_OPEN_2_3
   **   ~~~   ** The calculated Zone Volume was=-113.13
   **   ~~~   ** The simulation will continue with the Zone Volume set to 10.0 m3. 
   **   ~~~   ** ...use Output:Diagnostics,DisplayExtraWarnings; to show more details on individual zones.
   ** Warning ** Indicated Zone Volume <= 0.0 for Zone=OFFICE_OPEN_2_4
   **   ~~~   ** The calculated Zone Volume was=-133.33
   **   ~~~   ** The simulation will continue with the Zone Volume set to 10.0 m3. 
   **   ~~~   ** ...use Output:Diagnostics,DisplayExtraWarnings; to show more details on individual zones.
   ** Warning ** Indicated Zone Volume <= 0.0 for Zone=OFFICE_OPEN_2_5
   **   ~~~   ** The calculated Zone Volume was=-133.33
   **   ~~~   ** The simulation will continue with the Zone Volume set to 10.0 m3. 
   **   ~~~   ** ...use Output:Diagnostics,DisplayExtraWarnings; to show more details on individual zones.
   ** Warning ** Indicated Zone Volume <= 0.0 for Zone=OFFICE_OPEN_2_6
   **   ~~~   ** The calculated Zone Volume was=-69.34
   **   ~~~   ** The simulation will continue with the Zone Volume set to 10.0 m3. 
   **   ~~~   ** ...use Output:Diagnostics,DisplayExtraWarnings; to show more details on individual zones.
   ** Warning ** Indicated Zone Volume <= 0.0 for Zone=OFFICE_OPEN_2_7
   **   ~~~   ** The calculated Zone Volume was=-133.33
   **   ~~~   ** The simulation will continue with the Zone Volume set to 10.0 m3. 
   **   ~~~   ** ...use Output:Diagnostics,DisplayExtraWarnings; to show more details on individual zones.
   ** Warning ** Indicated Zone Volume <= 0.0 for Zone=LOBBY_3
   **   ~~~   ** The calculated Zone Volume was=-120.02
   **   ~~~   ** The simulation will continue with the Zone Volume set to 10.0 m3. 
   **   ~~~   ** ...use Output:Diagnostics,DisplayExtraWarnings; to show more details on individual zones.
   ** Warning ** Indicated Zone Volume <= 0.0 for Zone=CONFERENCE_3
   **   ~~~   ** The calculated Zone Volume was=-64.25
   **   ~~~   ** The simulation will continue with the Zone Volume set to 10.0 m3. 
   **   ~~~   ** ...use Output:Diagnostics,DisplayExtraWarnings; to show more details on individual zones.
   ** Warning ** Indicated Zone Volume <= 0.0 for Zone=BREAK_ROOM_3
   **   ~~~   ** The calculated Zone Volume was=-22.79
   **   ~~~   ** The simulation will continue with the Zone Volume set to 10.0 m3. 
   **   ~~~   ** ...use Output:Diagnostics,DisplayExtraWarnings; to show more details on individual zones.
   ** Warning ** Indicated Zone Volume <= 0.0 for Zone=MECHANICAL_3
   **   ~~~   ** The calculated Zone Volume was=-34.95
   **   ~~~   ** The simulation will continue with the Zone Volume set to 10.0 m3. 
   **   ~~~   ** ...use Output:Diagnostics,DisplayExtraWarnings; to show more details on individual zones.
   ** Warning ** Indicated Zone Volume <= 0.0 for Zone=OFFICE_OPEN_3
   **   ~~~   ** The calculated Zone Volume was=-121.29
   **   ~~~   ** The simulation will continue with the Zone Volume set to 10.0 m3. 
   **   ~~~   ** ...use Output:Diagnostics,DisplayExtraWarnings; to show more details on individual zones.
   ** Warning ** Indicated Zone Volume <= 0.0 for Zone=OFFICE_PRIVATE_3
   **   ~~~   ** The calculated Zone Volume was=-133.33
   **   ~~~   ** The simulation will continue with the Zone Volume set to 10.0 m3. 
   **   ~~~   ** ...use Output:Diagnostics,DisplayExtraWarnings; to show more details on individual zones.
   ** Warning ** Indicated Zone Volume <= 0.0 for Zone=STORAGE_3
   **   ~~~   ** The calculated Zone Volume was=-124.54
   **   ~~~   ** The simulation will continue with the Zone Volume set to 10.0 m3. 
   **   ~~~   ** ...use Output:Diagnostics,DisplayExtraWarnings; to show more details on individual zones.
   ** Warning ** Indicated Zone Volume <= 0.0 for Zone=OFFICE_OPEN_3_2
   **   ~~~   ** The calculated Zone Volume was=-99.82
   **   ~~~   ** The simulation will continue with the Zone Volume set to 10.0 m3. 
   **   ~~~   ** ...use Output:Diagnostics,DisplayExtraWarnings; to show more details on individual zones.
   ** Warning ** Indicated Zone Volume <= 0.0 for Zone=OFFICE_OPEN_3_3
   **   ~~~   ** The calculated Zone Volume was=-116.55
   **   ~~~   ** The simulation will continue with the Zone Volume set to 10.0 m3. 
   **   ~~~   ** ...use Output:Diagnostics,DisplayExtraWarnings; to show more details on individual zones.
   ** Warning ** Indicated Zone Volume <= 0.0 for Zone=OFFICE_OPEN_3_4
   **   ~~~   ** The calculated Zone Volume was=-121.42
   **   ~~~   ** The simulation will continue with the Zone Volume set to 10.0 m3. 
   **   ~~~   ** ...use Output:Diagnostics,DisplayExtraWarnings; to show more details on individual zones.
   ** Warning ** Indicated Zone Volume <= 0.0 for Zone=OFFICE_OPEN_3_5
   **   ~~~   ** The calculated Zone Volume was=-133.33
   **   ~~~   ** The simulation will continue with the Zone Volume set to 10.0 m3. 
   **   ~~~   ** ...use Output:Diagnostics,DisplayExtraWarnings; to show more details on individual zones.
   ** Warning ** Indicated Zone Volume <= 0.0 for Zone=OFFICE_OPEN_3_6
   **   ~~~   ** The calculated Zone Volume was=-127.71
   **   ~~~   ** The simulation will continue with the Zone Volume set to 10.0 m3. 
   **   ~~~   ** ...use Output:Diagnostics,DisplayExtraWarnings; to show more details on individual zones.
   ** Warning ** Indicated Zone Volume <= 0.0 for Zone=LOBBY_4
   **   ~~~   ** The calculated Zone Volume was=-146.93
   **   ~~~   ** The simulation will continue with the Zone Volume set to 10.0 m3. 
   **   ~~~   ** ...use Output:Diagnostics,DisplayExtraWarnings; to show more details on individual zones.
   ** Warning ** Indicated Zone Volume <= 0.0 for Zone=CONFERENCE_4
   **   ~~~   ** The calculated Zone Volume was=-69.92
   **   ~~~   ** The simulation will continue with the Zone Volume set to 10.0 m3. 
   **   ~~~   ** ...use Output:Diagnostics,DisplayExtraWarnings; to show more details on individual zones.
   ** Warning ** Indicated Zone Volume <= 0.0 for Zone=BREAK_ROOM_4
   **   ~~~   ** The calculated Zone Volume was=-40.54
   **   ~~~   ** The simulation will continue with the Zone Volume set to 10.0 m3. 
   **   ~~~   ** ...use Output:Diagnostics,DisplayExtraWarnings; to show more details on individual zones.
   ** Warning ** Indicated Zone Volume <= 0.0 for Zone=MECHANICAL_4
   **   ~~~   ** The calculated Zone Volume was=-97.09
   **   ~~~   ** The simulation will continue with the Zone Volume set to 10.0 m3. 
   **   ~~~   ** ...use Output:Diagnostics,DisplayExtraWarnings; to show more details on individual zones.
   ** Warning ** Indicated Zone Volume <= 0.0 for Zone=OFFICE_OPEN_4
   **   ~~~   ** The calculated Zone Volume was=-132.51
   **   ~~~   ** The simulation will continue with the Zone Volume set to 10.0 m3. 
   **   ~~~   ** ...use Output:Diagnostics,DisplayExtraWarnings; to show more details on individual zones.
   ** Warning ** Indicated Zone Volume <= 0.0 for Zone=OFFICE_PRIVATE_4
   **   ~~~   ** The calculated Zone Volume was=-133.24
   **   ~~~   ** The simulation will continue with the Zone Volume set to 10.0 m3. 
   **   ~~~   ** ...use Output:Diagnostics,DisplayExtraWarnings; to show more details on individual zones.
   ** Warning ** Indicated Zone Volume <= 0.0 for Zone=STORAGE_4
   **   ~~~   ** The calculated Zone Volume was=-129.79
   **   ~~~   ** The simulation will continue with the Zone Volume set to 10.0 m3. 
   **   ~~~   ** ...use Output:Diagnostics,DisplayExtraWarnings; to show more details on individual zones.
   ** Warning ** Indicated Zone Volume <= 0.0 for Zone=OFFICE_OPEN_4_2
   **   ~~~   ** The calculated Zone Volume was=-37.34
   **   ~~~   ** The simulation will continue with the Zone Volume set to 10.0 m3. 
   **   ~~~   ** ...use Output:Diagnostics,DisplayExtraWarnings; to show more details on individual zones.
   ** Warning ** Indicated Zone Volume <= 0.0 for Zone=OFFICE_OPEN_4_3
   **   ~~~   ** The calculated Zone Volume was=-122.63
   **   ~~~   ** The simulation will continue with the Zone Volume set to 10.0 m3. 
   **   ~~~   ** ...use Output:Diagnostics,DisplayExtraWarnings; to show more details on individual zones.
   ** Warning ** Indicated Zone Volume <= 0.0 for Zone=OFFICE_OPEN_4_4
   **   ~~~   ** The calculated Zone Volume was=-92.39
   **   ~~~   ** The simulation will continue with the Zone Volume set to 10.0 m3. 
   **   ~~~   ** ...use Output:Diagnostics,DisplayExtraWarnings; to show more details on individual zones.
   ** Warning ** Indicated Zone Volume <= 0.0 for Zone=OFFICE_OPEN_4_5
   **   ~~~   ** The calculated Zone Volume was=-74.15
   **   ~~~   ** The simulation will continue with the Zone Volume set to 10.0 m3. 
   **   ~~~   ** ...use Output:Diagnostics,DisplayExtraWarnings; to show more details on individual zones.
   ** Warning ** Indicated Zone Volume <= 0.0 for Zone=OFFICE_OPEN_4_6
   **   ~~~   ** The calculated Zone Volume was=-88.45
   **   ~~~   ** The simulation will continue with the Zone Volume set to 10.0 m3. 
   **   ~~~   ** ...use Output:Diagnostics,DisplayExtraWarnings; to show more details on individual zones.
   ** Warning ** Indicated Zone Volume <= 0.0 for Zone=OFFICE_OPEN_4_7
   **   ~~~   ** The calculated Zone Volume was=-129.37
   **   ~~~   ** The simulation will continue with the Zone Volume set to 10.0 m3. 
   **   ~~~   ** ...use Output:Diagnostics,DisplayExtraWarnings; to show more details on individual zones.
   ** Warning ** No Glare Calculation Daylighting Reference Point Name provided for object named: LOBBY_0_DAYLIGHT
   **   ~~~   ** No glare calculation performed, and the simulation continues.
   ** Warning ** GetDaylightingControls: Fraction of zone or space controlled by the Daylighting reference points is < 1.0.
   **   ~~~   ** ..discovered in Daylighting:Controls="LOBBY_0_DAYLIGHT", only 0.900 of the zone or space is controlled.
   ** Warning ** No Glare Calculation Daylighting Reference Point Name provided for object named: CONFERENCE_0_DAYLIGHT
   **   ~~~   ** No glare calculation performed, and the simulation continues.
   ** Warning ** GetDaylightingControls: Fraction of zone or space controlled by the Daylighting reference points is < 1.0.
   **   ~~~   ** ..discovered in Daylighting:Controls="CONFERENCE_0_DAYLIGHT", only 0.900 of the zone or space is controlled.
   ** Warning ** No Glare Calculation Daylighting Reference Point Name provided for object named: BREAK_ROOM_0_DAYLIGHT
   **   ~~~   ** No glare calculation performed, and the simulation continues.
   ** Warning ** GetDaylightingControls: Fraction of zone or space controlled by the Daylighting reference points is < 1.0.
   **   ~~~   ** ..discovered in Daylighting:Controls="BREAK_ROOM_0_DAYLIGHT", only 0.900 of the zone or space is controlled.
   ** Warning ** No Glare Calculation Daylighting Reference Point Name provided for object named: OFFICE_OPEN_0_DAYLIGHT
   **   ~~~   ** No glare calculation performed, and the simulation continues.
   ** Warning ** GetDaylightingControls: Fraction of zone or space controlled by the Daylighting reference points is < 1.0.
   **   ~~~   ** ..discovered in Daylighting:Controls="OFFICE_OPEN_0_DAYLIGHT", only 0.900 of the zone or space is controlled.
   ** Warning ** No Glare Calculation Daylighting Reference Point Name provided for object named: OFFICE_PRIVATE_0_DAYLIGHT
   **   ~~~   ** No glare calculation performed, and the simulation continues.
   ** Warning ** GetDaylightingControls: Fraction of zone or space controlled by the Daylighting reference points is < 1.0.
   **   ~~~   ** ..discovered in Daylighting:Controls="OFFICE_PRIVATE_0_DAYLIGHT", only 0.900 of the zone or space is controlled.
   ** Warning ** No Glare Calculation Daylighting Reference Point Name provided for object named: OFFICE_OPEN_0_2_DAYLIGHT
   **   ~~~   ** No glare calculation performed, and the simulation continues.
   ** Warning ** GetDaylightingControls: Fraction of zone or space controlled by the Daylighting reference points is < 1.0.
   **   ~~~   ** ..discovered in Daylighting:Controls="OFFICE_OPEN_0_2_DAYLIGHT", only 0.900 of the zone or space is controlled.
   ** Warning ** No Glare Calculation Daylighting Reference Point Name provided for object named: OFFICE_OPEN_0_3_DAYLIGHT
   **   ~~~   ** No glare calculation performed, and the simulation continues.
   ** Warning ** GetDaylightingControls: Fraction of zone or space controlled by the Daylighting reference points is < 1.0.
   **   ~~~   ** ..discovered in Daylighting:Controls="OFFICE_OPEN_0_3_DAYLIGHT", only 0.900 of the zone or space is controlled.
   ** Warning ** No Glare Calculation Daylighting Reference Point Name provided for object named: OFFICE_OPEN_0_4_DAYLIGHT
   **   ~~~   ** No glare calculation performed, and the simulation continues.
   ** Warning ** GetDaylightingControls: Fraction of zone or space controlled by the Daylighting reference points is < 1.0.
   **   ~~~   ** ..discovered in Daylighting:Controls="OFFICE_OPEN_0_4_DAYLIGHT", only 0.900 of the zone or space is controlled.
   ** Warning ** No Glare Calculation Daylighting Reference Point Name provided for object named: OFFICE_OPEN_0_5_DAYLIGHT
   **   ~~~   ** No glare calculation performed, and the simulation continues.
   ** Warning ** GetDaylightingControls: Fraction of zone or space controlled by the Daylighting reference points is < 1.0.
   **   ~~~   ** ..discovered in Daylighting:Controls="OFFICE_OPEN_0_5_DAYLIGHT", only 0.900 of the zone or space is controlled.
   ** Warning ** No Glare Calculation Daylighting Reference Point Name provided for object named: OFFICE_OPEN_0_6_DAYLIGHT
   **   ~~~   ** No glare calculation performed, and the simulation continues.
   ** Warning ** GetDaylightingControls: Fraction of zone or space controlled by the Daylighting reference points is < 1.0.
   **   ~~~   ** ..discovered in Daylighting:Controls="OFFICE_OPEN_0_6_DAYLIGHT", only 0.900 of the zone or space is controlled.
   ** Warning ** No Glare Calculation Daylighting Reference Point Name provided for object named: OFFICE_OPEN_0_7_DAYLIGHT
   **   ~~~   ** No glare calculation performed, and the simulation continues.
   ** Warning ** GetDaylightingControls: Fraction of zone or space controlled by the Daylighting reference points is < 1.0.
   **   ~~~   ** ..discovered in Daylighting:Controls="OFFICE_OPEN_0_7_DAYLIGHT", only 0.900 of the zone or space is controlled.
   ** Warning ** No Glare Calculation Daylighting Reference Point Name provided for object named: LOBBY_1_DAYLIGHT
   **   ~~~   ** No glare calculation performed, and the simulation continues.
   ** Warning ** GetDaylightingControls: Fraction of zone or space controlled by the Daylighting reference points is < 1.0.
   **   ~~~   ** ..discovered in Daylighting:Controls="LOBBY_1_DAYLIGHT", only 0.900 of the zone or space is controlled.
   ** Warning ** No Glare Calculation Daylighting Reference Point Name provided for object named: CONFERENCE_1_DAYLIGHT
   **   ~~~   ** No glare calculation performed, and the simulation continues.
   ** Warning ** GetDaylightingControls: Fraction of zone or space controlled by the Daylighting reference points is < 1.0.
   **   ~~~   ** ..discovered in Daylighting:Controls="CONFERENCE_1_DAYLIGHT", only 0.900 of the zone or space is controlled.
   ** Warning ** No Glare Calculation Daylighting Reference Point Name provided for object named: BREAK_ROOM_1_DAYLIGHT
   **   ~~~   ** No glare calculation performed, and the simulation continues.
   ** Warning ** GetDaylightingControls: Fraction of zone or space controlled by the Daylighting reference points is < 1.0.
   **   ~~~   ** ..discovered in Daylighting:Controls="BREAK_ROOM_1_DAYLIGHT", only 0.900 of the zone or space is controlled.
   ** Warning ** No Glare Calculation Daylighting Reference Point Name provided for object named: OFFICE_OPEN_1_DAYLIGHT
   **   ~~~   ** No glare calculation performed, and the simulation continues.
   ** Warning ** GetDaylightingControls: Fraction of zone or space controlled by the Daylighting reference points is < 1.0.
   **   ~~~   ** ..discovered in Daylighting:Controls="OFFICE_OPEN_1_DAYLIGHT", only 0.900 of the zone or space is controlled.
   ** Warning ** No Glare Calculation Daylighting Reference Point Name provided for object named: OFFICE_PRIVATE_1_DAYLIGHT
   **   ~~~   ** No glare calculation performed, and the simulation continues.
   ** Warning ** GetDaylightingControls: Fraction of zone or space controlled by the Daylighting reference points is < 1.0.
   **   ~~~   ** ..discovered in Daylighting:Controls="OFFICE_PRIVATE_1_DAYLIGHT", only 0.900 of the zone or space is controlled.
   ** Warning ** No Glare Calculation Daylighting Reference Point Name provided for object named: OFFICE_OPEN_1_2_DAYLIGHT
   **   ~~~   ** No glare calculation performed, and the simulation continues.
   ** Warning ** GetDaylightingControls: Fraction of zone or space controlled by the Daylighting reference points is < 1.0.
   **   ~~~   ** ..discovered in Daylighting:Controls="OFFICE_OPEN_1_2_DAYLIGHT", only 0.900 of the zone or space is controlled.
   ** Warning ** No Glare Calculation Daylighting Reference Point Name provided for object named: OFFICE_OPEN_1_3_DAYLIGHT
   **   ~~~   ** No glare calculation performed, and the simulation continues.
   ** Warning ** GetDaylightingControls: Fraction of zone or space controlled by the Daylighting reference points is < 1.0.
   **   ~~~   ** ..discovered in Daylighting:Controls="OFFICE_OPEN_1_3_DAYLIGHT", only 0.900 of the zone or space is controlled.
   ** Warning ** No Glare Calculation Daylighting Reference Point Name provided for object named: OFFICE_OPEN_1_4_DAYLIGHT
   **   ~~~   ** No glare calculation performed, and the simulation continues.
   ** Warning ** GetDaylightingControls: Fraction of zone or space controlled by the Daylighting reference points is < 1.0.
   **   ~~~   ** ..discovered in Daylighting:Controls="OFFICE_OPEN_1_4_DAYLIGHT", only 0.900 of the zone or space is controlled.
   ** Warning ** No Glare Calculation Daylighting Reference Point Name provided for object named: OFFICE_OPEN_1_5_DAYLIGHT
   **   ~~~   ** No glare calculation performed, and the simulation continues.
   ** Warning ** GetDaylightingControls: Fraction of zone or space controlled by the Daylighting reference points is < 1.0.
   **   ~~~   ** ..discovered in Daylighting:Controls="OFFICE_OPEN_1_5_DAYLIGHT", only 0.900 of the zone or space is controlled.
   ** Warning ** No Glare Calculation Daylighting Reference Point Name provided for object named: OFFICE_OPEN_1_6_DAYLIGHT
   **   ~~~   ** No glare calculation performed, and the simulation continues.
   ** Warning ** GetDaylightingControls: Fraction of zone or space controlled by the Daylighting reference points is < 1.0.
   **   ~~~   ** ..discovered in Daylighting:Controls="OFFICE_OPEN_1_6_DAYLIGHT", only 0.900 of the zone or space is controlled.
   ** Warning ** No Glare Calculation Daylighting Reference Point Name provided for object named: OFFICE_OPEN_1_7_DAYLIGHT
   **   ~~~   ** No glare calculation performed, and the simulation continues.
   ** Warning ** GetDaylightingControls: Fraction of zone or space controlled by the Daylighting reference points is < 1.0.
   **   ~~~   ** ..discovered in Daylighting:Controls="OFFICE_OPEN_1_7_DAYLIGHT", only 0.900 of the zone or space is controlled.
   ** Warning ** No Glare Calculation Daylighting Reference Point Name provided for object named: LOBBY_2_DAYLIGHT
   **   ~~~   ** No glare calculation performed, and the simulation continues.
   ** Warning ** GetDaylightingControls: Fraction of zone or space controlled by the Daylighting reference points is < 1.0.
   **   ~~~   ** ..discovered in Daylighting:Controls="LOBBY_2_DAYLIGHT", only 0.900 of the zone or space is controlled.
   ** Warning ** No Glare Calculation Daylighting Reference Point Name provided for object named: CONFERENCE_2_DAYLIGHT
   **   ~~~   ** No glare calculation performed, and the simulation continues.
   ** Warning ** GetDaylightingControls: Fraction of zone or space controlled by the Daylighting reference points is < 1.0.
   **   ~~~   ** ..discovered in Daylighting:Controls="CONFERENCE_2_DAYLIGHT", only 0.900 of the zone or space is controlled.
   ** Warning ** No Glare Calculation Daylighting Reference Point Name provided for object named: BREAK_ROOM_2_DAYLIGHT
   **   ~~~   ** No glare calculation performed, and the simulation continues.
   ** Warning ** GetDaylightingControls: Fraction of zone or space controlled by the Daylighting reference points is < 1.0.
   **   ~~~   ** ..discovered in Daylighting:Controls="BREAK_ROOM_2_DAYLIGHT", only 0.900 of the zone or space is controlled.
   ** Warning ** No Glare Calculation Daylighting Reference Point Name provided for object named: OFFICE_OPEN_2_DAYLIGHT
   **   ~~~   ** No glare calculation performed, and the simulation continues.
   ** Warning ** GetDaylightingControls: Fraction of zone or space controlled by the Daylighting reference points is < 1.0.
   **   ~~~   ** ..discovered in Daylighting:Controls="OFFICE_OPEN_2_DAYLIGHT", only 0.900 of the zone or space is controlled.
   ** Warning ** No Glare Calculation Daylighting Reference Point Name provided for object named: OFFICE_PRIVATE_2_DAYLIGHT
   **   ~~~   ** No glare calculation performed, and the simulation continues.
   ** Warning ** GetDaylightingControls: Fraction of zone or space controlled by the Daylighting reference points is < 1.0.
   **   ~~~   ** ..discovered in Daylighting:Controls="OFFICE_PRIVATE_2_DAYLIGHT", only 0.900 of the zone or space is controlled.
   ** Warning ** No Glare Calculation Daylighting Reference Point Name provided for object named: OFFICE_OPEN_2_2_DAYLIGHT
   **   ~~~   ** No glare calculation performed, and the simulation continues.
   ** Warning ** GetDaylightingControls: Fraction of zone or space controlled by the Daylighting reference points is < 1.0.
   **   ~~~   ** ..discovered in Daylighting:Controls="OFFICE_OPEN_2_2_DAYLIGHT", only 0.900 of the zone or space is controlled.
   ** Warning ** No Glare Calculation Daylighting Reference Point Name provided for object named: OFFICE_OPEN_2_3_DAYLIGHT
   **   ~~~   ** No glare calculation performed, and the simulation continues.
   ** Warning ** GetDaylightingControls: Fraction of zone or space controlled by the Daylighting reference points is < 1.0.
   **   ~~~   ** ..discovered in Daylighting:Controls="OFFICE_OPEN_2_3_DAYLIGHT", only 0.900 of the zone or space is controlled.
   ** Warning ** No Glare Calculation Daylighting Reference Point Name provided for object named: OFFICE_OPEN_2_4_DAYLIGHT
   **   ~~~   ** No glare calculation performed, and the simulation continues.
   ** Warning ** GetDaylightingControls: Fraction of zone or space controlled by the Daylighting reference points is < 1.0.
   **   ~~~   ** ..discovered in Daylighting:Controls="OFFICE_OPEN_2_4_DAYLIGHT", only 0.900 of the zone or space is controlled.
   ** Warning ** No Glare Calculation Daylighting Reference Point Name provided for object named: OFFICE_OPEN_2_5_DAYLIGHT
   **   ~~~   ** No glare calculation performed, and the simulation continues.
   ** Warning ** GetDaylightingControls: Fraction of zone or space controlled by the Daylighting reference points is < 1.0.
   **   ~~~   ** ..discovered in Daylighting:Controls="OFFICE_OPEN_2_5_DAYLIGHT", only 0.900 of the zone or space is controlled.
   ** Warning ** No Glare Calculation Daylighting Reference Point Name provided for object named: OFFICE_OPEN_2_6_DAYLIGHT
   **   ~~~   ** No glare calculation performed, and the simulation continues.
   ** Warning ** GetDaylightingControls: Fraction of zone or space controlled by the Daylighting reference points is < 1.0.
   **   ~~~   ** ..discovered in Daylighting:Controls="OFFICE_OPEN_2_6_DAYLIGHT", only 0.900 of the zone or space is controlled.
   ** Warning ** No Glare Calculation Daylighting Reference Point Name provided for object named: OFFICE_OPEN_2_7_DAYLIGHT
   **   ~~~   ** No glare calculation performed, and the simulation continues.
   ** Warning ** GetDaylightingControls: Fraction of zone or space controlled by the Daylighting reference points is < 1.0.
   **   ~~~   ** ..discovered in Daylighting:Controls="OFFICE_OPEN_2_7_DAYLIGHT", only 0.900 of the zone or space is controlled.
   ** Warning ** No Glare Calculation Daylighting Reference Point Name provided for object named: LOBBY_3_DAYLIGHT
   **   ~~~   ** No glare calculation performed, and the simulation continues.
   ** Warning ** GetDaylightingControls: Fraction of zone or space controlled by the Daylighting reference points is < 1.0.
   **   ~~~   ** ..discovered in Daylighting:Controls="LOBBY_3_DAYLIGHT", only 0.900 of the zone or space is controlled.
   ** Warning ** No Glare Calculation Daylighting Reference Point Name provided for object named: CONFERENCE_3_DAYLIGHT
   **   ~~~   ** No glare calculation performed, and the simulation continues.
   ** Warning ** GetDaylightingControls: Fraction of zone or space controlled by the Daylighting reference points is < 1.0.
   **   ~~~   ** ..discovered in Daylighting:Controls="CONFERENCE_3_DAYLIGHT", only 0.900 of the zone or space is controlled.
   ** Warning ** No Glare Calculation Daylighting Reference Point Name provided for object named: BREAK_ROOM_3_DAYLIGHT
   **   ~~~   ** No glare calculation performed, and the simulation continues.
   ** Warning ** GetDaylightingControls: Fraction of zone or space controlled by the Daylighting reference points is < 1.0.
   **   ~~~   ** ..discovered in Daylighting:Controls="BREAK_ROOM_3_DAYLIGHT", only 0.900 of the zone or space is controlled.
   ** Warning ** No Glare Calculation Daylighting Reference Point Name provided for object named: OFFICE_OPEN_3_DAYLIGHT
   **   ~~~   ** No glare calculation performed, and the simulation continues.
   ** Warning ** GetDaylightingControls: Fraction of zone or space controlled by the Daylighting reference points is < 1.0.
   **   ~~~   ** ..discovered in Daylighting:Controls="OFFICE_OPEN_3_DAYLIGHT", only 0.900 of the zone or space is controlled.
   ** Warning ** No Glare Calculation Daylighting Reference Point Name provided for object named: OFFICE_PRIVATE_3_DAYLIGHT
   **   ~~~   ** No glare calculation performed, and the simulation continues.
   ** Warning ** GetDaylightingControls: Fraction of zone or space controlled by the Daylighting reference points is < 1.0.
   **   ~~~   ** ..discovered in Daylighting:Controls="OFFICE_PRIVATE_3_DAYLIGHT", only 0.900 of the zone or space is controlled.
   ** Warning ** No Glare Calculation Daylighting Reference Point Name provided for object named: OFFICE_OPEN_3_2_DAYLIGHT
   **   ~~~   ** No glare calculation performed, and the simulation continues.
   ** Warning ** GetDaylightingControls: Fraction of zone or space controlled by the Daylighting reference points is < 1.0.
   **   ~~~   ** ..discovered in Daylighting:Controls="OFFICE_OPEN_3_2_DAYLIGHT", only 0.900 of the zone or space is controlled.
   ** Warning ** No Glare Calculation Daylighting Reference Point Name provided for object named: OFFICE_OPEN_3_3_DAYLIGHT
   **   ~~~   ** No glare calculation performed, and the simulation continues.
   ** Warning ** GetDaylightingControls: Fraction of zone or space controlled by the Daylighting reference points is < 1.0.
   **   ~~~   ** ..discovered in Daylighting:Controls="OFFICE_OPEN_3_3_DAYLIGHT", only 0.900 of the zone or space is controlled.
   ** Warning ** No Glare Calculation Daylighting Reference Point Name provided for object named: OFFICE_OPEN_3_4_DAYLIGHT
   **   ~~~   ** No glare calculation performed, and the simulation continues.
   ** Warning ** GetDaylightingControls: Fraction of zone or space controlled by the Daylighting reference points is < 1.0.
   **   ~~~   ** ..discovered in Daylighting:Controls="OFFICE_OPEN_3_4_DAYLIGHT", only 0.900 of the zone or space is controlled.
   ** Warning ** No Glare Calculation Daylighting Reference Point Name provided for object named: OFFICE_OPEN_3_5_DAYLIGHT
   **   ~~~   ** No glare calculation performed, and the simulation continues.
   ** Warning ** GetDaylightingControls: Fraction of zone or space controlled by the Daylighting reference points is < 1.0.
   **   ~~~   ** ..discovered in Daylighting:Controls="OFFICE_OPEN_3_5_DAYLIGHT", only 0.900 of the zone or space is controlled.
   ** Warning ** No Glare Calculation Daylighting Reference Point Name provided for object named: OFFICE_OPEN_3_6_DAYLIGHT
   **   ~~~   ** No glare calculation performed, and the simulation continues.
   ** Warning ** GetDaylightingControls: Fraction of zone or space controlled by the Daylighting reference points is < 1.0.
   **   ~~~   ** ..discovered in Daylighting:Controls="OFFICE_OPEN_3_6_DAYLIGHT", only 0.900 of the zone or space is controlled.
   ** Warning ** No Glare Calculation Daylighting Reference Point Name provided for object named: LOBBY_4_DAYLIGHT
   **   ~~~   ** No glare calculation performed, and the simulation continues.
   ** Warning ** GetDaylightingControls: Fraction of zone or space controlled by the Daylighting reference points is < 1.0.
   **   ~~~   ** ..discovered in Daylighting:Controls="LOBBY_4_DAYLIGHT", only 0.900 of the zone or space is controlled.
   ** Warning ** No Glare Calculation Daylighting Reference Point Name provided for object named: CONFERENCE_4_DAYLIGHT
   **   ~~~   ** No glare calculation performed, and the simulation continues.
   ** Warning ** GetDaylightingControls: Fraction of zone or space controlled by the Daylighting reference points is < 1.0.
   **   ~~~   ** ..discovered in Daylighting:Controls="CONFERENCE_4_DAYLIGHT", only 0.900 of the zone or space is controlled.
   ** Warning ** No Glare Calculation Daylighting Reference Point Name provided for object named: BREAK_ROOM_4_DAYLIGHT
   **   ~~~   ** No glare calculation performed, and the simulation continues.
   ** Warning ** GetDaylightingControls: Fraction of zone or space controlled by the Daylighting reference points is < 1.0.
   **   ~~~   ** ..discovered in Daylighting:Controls="BREAK_ROOM_4_DAYLIGHT", only 0.900 of the zone or space is controlled.
   ** Warning ** No Glare Calculation Daylighting Reference Point Name provided for object named: OFFICE_OPEN_4_DAYLIGHT
   **   ~~~   ** No glare calculation performed, and the simulation continues.
   ** Warning ** GetDaylightingControls: Fraction of zone or space controlled by the Daylighting reference points is < 1.0.
   **   ~~~   ** ..discovered in Daylighting:Controls="OFFICE_OPEN_4_DAYLIGHT", only 0.900 of the zone or space is controlled.
   ** Warning ** No Glare Calculation Daylighting Reference Point Name provided for object named: OFFICE_PRIVATE_4_DAYLIGHT
   **   ~~~   ** No glare calculation performed, and the simulation continues.
   ** Warning ** GetDaylightingControls: Fraction of zone or space controlled by the Daylighting reference points is < 1.0.
   **   ~~~   ** ..discovered in Daylighting:Controls="OFFICE_PRIVATE_4_DAYLIGHT", only 0.900 of the zone or space is controlled.
   ** Warning ** No Glare Calculation Daylighting Reference Point Name provided for object named: OFFICE_OPEN_4_2_DAYLIGHT
   **   ~~~   ** No glare calculation performed, and the simulation continues.
   ** Warning ** GetDaylightingControls: Fraction of zone or space controlled by the Daylighting reference points is < 1.0.
   **   ~~~   ** ..discovered in Daylighting:Controls="OFFICE_OPEN_4_2_DAYLIGHT", only 0.900 of the zone or space is controlled.
   ** Warning ** No Glare Calculation Daylighting Reference Point Name provided for object named: OFFICE_OPEN_4_3_DAYLIGHT
   **   ~~~   ** No glare calculation performed, and the simulation continues.
   ** Warning ** GetDaylightingControls: Fraction of zone or space controlled by the Daylighting reference points is < 1.0.
   **   ~~~   ** ..discovered in Daylighting:Controls="OFFICE_OPEN_4_3_DAYLIGHT", only 0.900 of the zone or space is controlled.
   ** Warning ** No Glare Calculation Daylighting Reference Point Name provided for object named: OFFICE_OPEN_4_4_DAYLIGHT
   **   ~~~   ** No glare calculation performed, and the simulation continues.
   ** Warning ** GetDaylightingControls: Fraction of zone or space controlled by the Daylighting reference points is < 1.0.
   **   ~~~   ** ..discovered in Daylighting:Controls="OFFICE_OPEN_4_4_DAYLIGHT", only 0.900 of the zone or space is controlled.
   ** Warning ** No Glare Calculation Daylighting Reference Point Name provided for object named: OFFICE_OPEN_4_5_DAYLIGHT
   **   ~~~   ** No glare calculation performed, and the simulation continues.
   ** Warning ** GetDaylightingControls: Fraction of zone or space controlled by the Daylighting reference points is < 1.0.
   **   ~~~   ** ..discovered in Daylighting:Controls="OFFICE_OPEN_4_5_DAYLIGHT", only 0.900 of the zone or space is controlled.
   ** Warning ** No Glare Calculation Daylighting Reference Point Name provided for object named: OFFICE_OPEN_4_6_DAYLIGHT
   **   ~~~   ** No glare calculation performed, and the simulation continues.
   ** Warning ** GetDaylightingControls: Fraction of zone or space controlled by the Daylighting reference points is < 1.0.
   **   ~~~   ** ..discovered in Daylighting:Controls="OFFICE_OPEN_4_6_DAYLIGHT", only 0.900 of the zone or space is controlled.
   ** Warning ** No Glare Calculation Daylighting Reference Point Name provided for object named: OFFICE_OPEN_4_7_DAYLIGHT
   **   ~~~   ** No glare calculation performed, and the simulation continues.
   ** Warning ** GetDaylightingControls: Fraction of zone or space controlled by the Daylighting reference points is < 1.0.
   **   ~~~   ** ..discovered in Daylighting:Controls="OFFICE_OPEN_4_7_DAYLIGHT", only 0.900 of the zone or space is controlled.
   ** Warning ** GeometryTransformForDaylighting: Reference point X Value outside Zone Min/Max X, Zone=LOBBY_0
   **   ~~~   ** ...X Reference Point= 2.00, Zone Minimum X= 5.88, Zone Maximum X= 12.96
   **   ~~~   ** ...X Reference Distance Outside MinimumX= 3.8765 m.
   ** Warning ** GeometryTransformForDaylighting: Reference point X Value outside Zone Min/Max X, Zone=CONFERENCE_0
   **   ~~~   ** ...X Reference Point= 2.00, Zone Minimum X= 20.26, Zone Maximum X= 26.30
   **   ~~~   ** ...X Reference Distance Outside MinimumX= 18.2594 m.
   ** Warning ** GeometryTransformForDaylighting: Reference point X Value outside Zone Min/Max X, Zone=BREAK_ROOM_0
   **   ~~~   ** ...X Reference Point= 2.00, Zone Minimum X= -15.26, Zone Maximum X= -11.04
   **   ~~~   ** ...X Reference Distance Outside MinimumX= 13.0360 m.
   ** Warning ** GeometryTransformForDaylighting: Reference point X Value outside Zone Min/Max X, Zone=OFFICE_OPEN_0
   **   ~~~   ** ...X Reference Point= 2.00, Zone Minimum X= -31.54, Zone Maximum X= -18.85
   **   ~~~   ** ...X Reference Distance Outside MinimumX= 20.8456 m.
   ** Warning ** GeometryTransformForDaylighting: Reference point Y Value outside Zone Min/Max Y, Zone=OFFICE_OPEN_0
   **   ~~~   ** ...Y Reference Point= 2.00, Zone Minimum Y= -15.93, Zone Maximum Y= -5.24
   **   ~~~   ** ...Y Reference Distance Outside MinimumY= 7.2422 m.
   ** Warning ** GeometryTransformForDaylighting: Reference point X Value outside Zone Min/Max X, Zone=OFFICE_PRIVATE_0
   **   ~~~   ** ...X Reference Point= 2.00, Zone Minimum X= -18.95, Zone Maximum X= -6.25
   **   ~~~   ** ...X Reference Distance Outside MinimumX= 8.2485 m.
   ** Warning ** GeometryTransformForDaylighting: Reference point Y Value outside Zone Min/Max Y, Zone=OFFICE_PRIVATE_0
   **   ~~~   ** ...Y Reference Point= 2.00, Zone Minimum Y= -15.93, Zone Maximum Y= -5.24
   **   ~~~   ** ...Y Reference Distance Outside MinimumY= 7.2422 m.
   ** Warning ** GeometryTransformForDaylighting: Reference point X Value outside Zone Min/Max X, Zone=OFFICE_OPEN_0_2
   **   ~~~   ** ...X Reference Point= 2.00, Zone Minimum X= -31.54, Zone Maximum X= -18.85
   **   ~~~   ** ...X Reference Distance Outside MinimumX= 20.8456 m.
   ** Warning ** GeometryTransformForDaylighting: Reference point X Value outside Zone Min/Max X, Zone=OFFICE_OPEN_0_3
   **   ~~~   ** ...X Reference Point= 2.00, Zone Minimum X= -18.95, Zone Maximum X= -6.25
   **   ~~~   ** ...X Reference Distance Outside MinimumX= 8.2485 m.
   ** Warning ** GeometryTransformForDaylighting: Reference point X Value outside Zone Min/Max X, Zone=OFFICE_OPEN_0_5
   **   ~~~   ** ...X Reference Point= 2.00, Zone Minimum X= -31.54, Zone Maximum X= -18.85
   **   ~~~   ** ...X Reference Distance Outside MinimumX= 20.8456 m.
   ** Warning ** GeometryTransformForDaylighting: Reference point Y Value outside Zone Min/Max Y, Zone=OFFICE_OPEN_0_5
   **   ~~~   ** ...Y Reference Point= 2.00, Zone Minimum Y= 5.24, Zone Maximum Y= 15.93
   **   ~~~   ** ...Y Reference Distance Outside MinimumY= 3.2422 m.
   ** Warning ** GeometryTransformForDaylighting: Reference point X Value outside Zone Min/Max X, Zone=OFFICE_OPEN_0_6
   **   ~~~   ** ...X Reference Point= 2.00, Zone Minimum X= -18.95, Zone Maximum X= -6.25
   **   ~~~   ** ...X Reference Distance Outside MinimumX= 8.2485 m.
   ** Warning ** GeometryTransformForDaylighting: Reference point Y Value outside Zone Min/Max Y, Zone=OFFICE_OPEN_0_6
   **   ~~~   ** ...Y Reference Point= 2.00, Zone Minimum Y= 5.24, Zone Maximum Y= 15.93
   **   ~~~   ** ...Y Reference Distance Outside MinimumY= 3.2422 m.
   ** Warning ** GeometryTransformForDaylighting: Reference point Y Value outside Zone Min/Max Y, Zone=OFFICE_OPEN_0_7
   **   ~~~   ** ...Y Reference Point= 2.00, Zone Minimum Y= 5.24, Zone Maximum Y= 15.93
   **   ~~~   ** ...Y Reference Distance Outside MinimumY= 3.2422 m.
   ** Warning ** GeometryTransformForDaylighting: Reference point X Value outside Zone Min/Max X, Zone=LOBBY_1
   **   ~~~   ** ...X Reference Point= 2.00, Zone Minimum X= -23.69, Zone Maximum X= -16.90
   **   ~~~   ** ...X Reference Distance Outside MinimumX= 18.9011 m.
   ** Warning ** GeometryTransformForDaylighting: Reference point Y Value outside Zone Min/Max Y, Zone=LOBBY_1
   **   ~~~   ** ...Y Reference Point= 2.00, Zone Minimum Y= -7.04, Zone Maximum Y= 0.63
   **   ~~~   ** ...Y Reference Distance Outside MinimumY= 1.3740 m.
   ** Warning ** GeometryTransformForDaylighting: Reference point Z Value outside Zone Min/Max Z, Zone=LOBBY_1
   **   ~~~   ** ...Z Reference Point= 0.80, Zone Minimum Z= 3.00, Zone Maximum Z= 6.00
   **   ~~~   ** ...Z Reference Distance Outside MinimumZ= 2.2000 m.
[...]
   ** Severe  ** ThermostatSetpoint:DualSetpoint="OFFICE_OPEN_0_6_Z12_THERMOSTAT" invalid Heating Setpoint Temperature Schedule Name="OFFICE_OPEN_0_6_Z12_HEATINGSETPOINT" not found.
   ** Severe  ** ThermostatSetpoint:DualSetpoint="OFFICE_OPEN_0_6_Z12_THERMOSTAT" invalid Cooling Setpoint Temperature Schedule Name="OFFICE_OPEN_0_6_Z12_COOLINGSETPOINT" not found.
   ** Severe  ** ThermostatSetpoint:DualSetpoint="OFFICE_OPEN_0_7_Z13_THERMOSTAT" invalid Heating Setpoint Temperature Schedule Name="OFFICE_OPEN_0_7_Z13_HEATINGSETPOINT" not found.
   ** Severe  ** ThermostatSetpoint:DualSetpoint="OFFICE_OPEN_0_7_Z13_THERMOSTAT" invalid Cooling Setpoint Temperature Schedule Name="OFFICE_OPEN_0_7_Z13_COOLINGSETPOINT" not found.
   ** Severe  ** ThermostatSetpoint:DualSetpoint="LOBBY_1_Z14_THERMOSTAT" invalid Heating Setpoint Temperature Schedule Name="LOBBY_1_Z14_HEATINGSETPOINT" not found.
   ** Severe  ** ThermostatSetpoint:DualSetpoint="LOBBY_1_Z14_THERMOSTAT" invalid Cooling Setpoint Temperature Schedule Name="LOBBY_1_Z14_COOLINGSETPOINT" not found.
   ** Severe  ** ThermostatSetpoint:DualSetpoint="CONFERENCE_1_Z15_THERMOSTAT" invalid Heating Setpoint Temperature Schedule Name="CONFERENCE_1_Z15_HEATINGSETPOINT" not found.
   ** Severe  ** ThermostatSetpoint:DualSetpoint="CONFERENCE_1_Z15_THERMOSTAT" invalid Cooling Setpoint Temperature Schedule Name="CONFERENCE_1_Z15_COOLINGSETPOINT" not found.
   ** Severe  ** ThermostatSetpoint:DualSetpoint="BREAK_ROOM_1_Z16_THERMOSTAT" invalid Heating Setpoint Temperature Schedule Name="BREAK_ROOM_1_Z16_HEATINGSETPOINT" not found.
   ** Severe  ** ThermostatSetpoint:DualSetpoint="BREAK_ROOM_1_Z16_THERMOSTAT" invalid Cooling Setpoint Temperature Schedule Name="BREAK_ROOM_1_Z16_COOLINGSETPOINT" not found.
   ** Severe  ** ThermostatSetpoint:DualSetpoint="MECHANICAL_1_Z17_THERMOSTAT" invalid Heating Setpoint Temperature Schedule Name="MECHANICAL_1_Z17_HEATINGSETPOINT" not found.
   ** Severe  ** ThermostatSetpoint:DualSetpoint="MECHANICAL_1_Z17_THERMOSTAT" invalid Cooling Setpoint Temperature Schedule Name="MECHANICAL_1_Z17_COOLINGSETPOINT" not found.
   ** Severe  ** ThermostatSetpoint:DualSetpoint="OFFICE_OPEN_1_Z18_THERMOSTAT" invalid Heating Setpoint Temperature Schedule Name="OFFICE_OPEN_1_Z18_HEATINGSETPOINT" not found.
   ** Severe  ** ThermostatSetpoint:DualSetpoint="OFFICE_OPEN_1_Z18_THERMOSTAT" invalid Cooling Setpoint Temperature Schedule Name="OFFICE_OPEN_1_Z18_COOLINGSETPOINT" not found.
   ** Severe  ** ThermostatSetpoint:DualSetpoint="OFFICE_PRIVATE_1_Z19_THERMOSTAT" invalid Heating Setpoint Temperature Schedule Name="OFFICE_PRIVATE_1_Z19_HEATINGSETPOINT" not found.
   ** Severe  ** ThermostatSetpoint:DualSetpoint="OFFICE_PRIVATE_1_Z19_THERMOSTAT" invalid Cooling Setpoint Temperature Schedule Name="OFFICE_PRIVATE_1_Z19_COOLINGSETPOINT" not found.
   ** Severe  ** ThermostatSetpoint:DualSetpoint="STORAGE_1_Z20_THERMOSTAT" invalid Heating Setpoint Temperature Schedule Name="STORAGE_1_Z20_HEATINGSETPOINT" not found.
   ** Severe  ** ThermostatSetpoint:DualSetpoint="STORAGE_1_Z20_THERMOSTAT" invalid Cooling Setpoint Temperature Schedule Name="STORAGE_1_Z20_COOLINGSETPOINT" not found.
   ** Severe  ** ThermostatSetpoint:DualSetpoint="OFFICE_OPEN_1_2_Z21_THERMOSTAT" invalid Heating Setpoint Temperature Schedule Name="OFFICE_OPEN_1_2_Z21_HEATINGSETPOINT" not found.
   ** Severe  ** ThermostatSetpoint:DualSetpoint="OFFICE_OPEN_1_2_Z21_THERMOSTAT" invalid Cooling Setpoint Temperature Schedule Name="OFFICE_OPEN_1_2_Z21_COOLINGSETPOINT" not found.
   ** Severe  ** ThermostatSetpoint:DualSetpoint="OFFICE_OPEN_1_3_Z22_THERMOSTAT" invalid Heating Setpoint Temperature Schedule Name="OFFICE_OPEN_1_3_Z22_HEATINGSETPOINT" not found.
   ** Severe  ** ThermostatSetpoint:DualSetpoint="OFFICE_OPEN_1_3_Z22_THERMOSTAT" invalid Cooling Setpoint Temperature Schedule Name="OFFICE_OPEN_1_3_Z22_COOLINGSETPOINT" not found.
   ** Severe  ** ThermostatSetpoint:DualSetpoint="OFFICE_OPEN_1_4_Z23_THERMOSTAT" invalid Heating Setpoint Temperature Schedule Name="OFFICE_OPEN_1_4_Z23_HEATINGSETPOINT" not found.
   ** Severe  ** ThermostatSetpoint:DualSetpoint="OFFICE_OPEN_1_4_Z23_THERMOSTAT" invalid Cooling Setpoint Temperature Schedule Name="OFFICE_OPEN_1_4_Z23_COOLINGSETPOINT" not found.
   ** Severe  ** ThermostatSetpoint:DualSetpoint="OFFICE_OPEN_1_5_Z24_THERMOSTAT" invalid Heating Setpoint Temperature Schedule Name="OFFICE_OPEN_1_5_Z24_HEATINGSETPOINT" not found.
   ** Severe  ** ThermostatSetpoint:DualSetpoint="OFFICE_OPEN_1_5_Z24_THERMOSTAT" invalid Cooling Setpoint Temperature Schedule Name="OFFICE_OPEN_1_5_Z24_COOLINGSETPOINT" not found.
   ** Severe  ** ThermostatSetpoint:DualSetpoint="OFFICE_OPEN_1_6_Z25_THERMOSTAT" invalid Heating Setpoint Temperature Schedule Name="OFFICE_OPEN_1_6_Z25_HEATINGSETPOINT" not found.
   ** Severe  ** ThermostatSetpoint:DualSetpoint="OFFICE_OPEN_1_6_Z25_THERMOSTAT" invalid Cooling Setpoint Temperature Schedule Name="OFFICE_OPEN_1_6_Z25_COOLINGSETPOINT" not found.
   ** Severe  ** ThermostatSetpoint:DualSetpoint="OFFICE_OPEN_1_7_Z26_THERMOSTAT" invalid Heating Setpoint Temperature Schedule Name="OFFICE_OPEN_1_7_Z26_HEATINGSETPOINT" not found.
   ** Severe  ** ThermostatSetpoint:DualSetpoint="OFFICE_OPEN_1_7_Z26_THERMOSTAT" invalid Cooling Setpoint Temperature Schedule Name="OFFICE_OPEN_1_7_Z26_COOLINGSETPOINT" not found.
   ** Severe  ** ThermostatSetpoint:DualSetpoint="LOBBY_2_Z27_THERMOSTAT" invalid Heating Setpoint Temperature Schedule Name="LOBBY_2_Z27_HEATINGSETPOINT" not found.
   ** Severe  ** ThermostatSetpoint:DualSetpoint="LOBBY_2_Z27_THERMOSTAT" invalid Cooling Setpoint Temperature Schedule Name="LOBBY_2_Z27_COOLINGSETPOINT" not found.
   ** Severe  ** ThermostatSetpoint:DualSetpoint="CONFERENCE_2_Z28_THERMOSTAT" invalid Heating Setpoint Temperature Schedule Name="CONFERENCE_2_Z28_HEATINGSETPOINT" not found.
   ** Severe  ** ThermostatSetpoint:DualSetpoint="CONFERENCE_2_Z28_THERMOSTAT" invalid Cooling Setpoint Temperature Schedule Name="CONFERENCE_2_Z28_COOLINGSETPOINT" not found.
   ** Severe  ** ThermostatSetpoint:DualSetpoint="BREAK_ROOM_2_Z29_THERMOSTAT" invalid Heating Setpoint Temperature Schedule Name="BREAK_ROOM_2_Z29_HEATINGSETPOINT" not found.
   ** Severe  ** ThermostatSetpoint:DualSetpoint="BREAK_ROOM_2_Z29_THERMOSTAT" invalid Cooling Setpoint Temperature Schedule Name="BREAK_ROOM_2_Z29_COOLINGSETPOINT" not found.
   ** Severe  ** ThermostatSetpoint:DualSetpoint="MECHANICAL_2_Z30_THERMOSTAT" invalid Heating Setpoint Temperature Schedule Name="MECHANICAL_2_Z30_HEATINGSETPOINT" not found.
   ** Severe  ** ThermostatSetpoint:DualSetpoint="MECHANICAL_2_Z30_THERMOSTAT" invalid Cooling Setpoint Temperature Schedule Name="MECHANICAL_2_Z30_COOLINGSETPOINT" not found.
   ** Severe  ** ThermostatSetpoint:DualSetpoint="OFFICE_OPEN_2_Z31_THERMOSTAT" invalid Heating Setpoint Temperature Schedule Name="OFFICE_OPEN_2_Z31_HEATINGSETPOINT" not found.
   ** Severe  ** ThermostatSetpoint:DualSetpoint="OFFICE_OPEN_2_Z31_THERMOSTAT" invalid Cooling Setpoint Temperature Schedule Name="OFFICE_OPEN_2_Z31_COOLINGSETPOINT" not found.
   ** Severe  ** ThermostatSetpoint:DualSetpoint="OFFICE_PRIVATE_2_Z32_THERMOSTAT" invalid Heating Setpoint Temperature Schedule Name="OFFICE_PRIVATE_2_Z32_HEATINGSETPOINT" not found.
   ** Severe  ** ThermostatSetpoint:DualSetpoint="OFFICE_PRIVATE_2_Z32_THERMOSTAT" invalid Cooling Setpoint Temperature Schedule Name="OFFICE_PRIVATE_2_Z32_COOLINGSETPOINT" not found.
   ** Severe  ** ThermostatSetpoint:DualSetpoint="STORAGE_2_Z33_THERMOSTAT" invalid Heating Setpoint Temperature Schedule Name="STORAGE_2_Z33_HEATINGSETPOINT" not found.
   ** Severe  ** ThermostatSetpoint:DualSetpoint="STORAGE_2_Z33_THERMOSTAT" invalid Cooling Setpoint Temperature Schedule Name="STORAGE_2_Z33_COOLINGSETPOINT" not found.
   ** Severe  ** ThermostatSetpoint:DualSetpoint="OFFICE_OPEN_2_2_Z34_THERMOSTAT" invalid Heating Setpoint Temperature Schedule Name="OFFICE_OPEN_2_2_Z34_HEATINGSETPOINT" not found.
   ** Severe  ** ThermostatSetpoint:DualSetpoint="OFFICE_OPEN_2_2_Z34_THERMOSTAT" invalid Cooling Setpoint Temperature Schedule Name="OFFICE_OPEN_2_2_Z34_COOLINGSETPOINT" not found.
   ** Severe  ** ThermostatSetpoint:DualSetpoint="OFFICE_OPEN_2_3_Z35_THERMOSTAT" invalid Heating Setpoint Temperature Schedule Name="OFFICE_OPEN_2_3_Z35_HEATINGSETPOINT" not found.
   ** Severe  ** ThermostatSetpoint:DualSetpoint="OFFICE_OPEN_2_3_Z35_THERMOSTAT" invalid Cooling Setpoint Temperature Schedule Name="OFFICE_OPEN_2_3_Z35_COOLINGSETPOINT" not found.
   ** Severe  ** ThermostatSetpoint:DualSetpoint="OFFICE_OPEN_2_4_Z36_THERMOSTAT" invalid Heating Setpoint Temperature Schedule Name="OFFICE_OPEN_2_4_Z36_HEATINGSETPOINT" not found.
   ** Severe  ** ThermostatSetpoint:DualSetpoint="OFFICE_OPEN_2_4_Z36_THERMOSTAT" invalid Cooling Setpoint Temperature Schedule Name="OFFICE_OPEN_2_4_Z36_COOLINGSETPOINT" not found.
   ** Severe  ** ThermostatSetpoint:DualSetpoint="OFFICE_OPEN_2_5_Z37_THERMOSTAT" invalid Heating Setpoint Temperature Schedule Name="OFFICE_OPEN_2_5_Z37_HEATINGSETPOINT" not found.
   ** Severe  ** ThermostatSetpoint:DualSetpoint="OFFICE_OPEN_2_5_Z37_THERMOSTAT" invalid Cooling Setpoint Temperature Schedule Name="OFFICE_OPEN_2_5_Z37_COOLINGSETPOINT" not found.
   ** Severe  ** ThermostatSetpoint:DualSetpoint="OFFICE_OPEN_2_6_Z38_THERMOSTAT" invalid Heating Setpoint Temperature Schedule Name="OFFICE_OPEN_2_6_Z38_HEATINGSETPOINT" not found.
   ** Severe  ** ThermostatSetpoint:DualSetpoint="OFFICE_OPEN_2_6_Z38_THERMOSTAT" invalid Cooling Setpoint Temperature Schedule Name="OFFICE_OPEN_2_6_Z38_COOLINGSETPOINT" not found.
   ** Severe  ** ThermostatSetpoint:DualSetpoint="OFFICE_OPEN_2_7_Z39_THERMOSTAT" invalid Heating Setpoint Temperature Schedule Name="OFFICE_OPEN_2_7_Z39_HEATINGSETPOINT" not found.
   ** Severe  ** ThermostatSetpoint:DualSetpoint="OFFICE_OPEN_2_7_Z39_THERMOSTAT" invalid Cooling Setpoint Temperature Schedule Name="OFFICE_OPEN_2_7_Z39_COOLINGSETPOINT" not found.
   ** Severe  ** ThermostatSetpoint:DualSetpoint="LOBBY_3_Z40_THERMOSTAT" invalid Heating Setpoint Temperature Schedule Name="LOBBY_3_Z40_HEATINGSETPOINT" not found.
   ** Severe  ** ThermostatSetpoint:DualSetpoint="LOBBY_3_Z40_THERMOSTAT" invalid Cooling Setpoint Temperature Schedule Name="LOBBY_3_Z40_COOLINGSETPOINT" not found.
   ** Severe  ** ThermostatSetpoint:DualSetpoint="CONFERENCE_3_Z41_THERMOSTAT" invalid Heating Setpoint Temperature Schedule Name="CONFERENCE_3_Z41_HEATINGSETPOINT" not found.
   ** Severe  ** ThermostatSetpoint:DualSetpoint="CONFERENCE_3_Z41_THERMOSTAT" invalid Cooling Setpoint Temperature Schedule Name="CONFERENCE_3_Z41_COOLINGSETPOINT" not found.
   ** Severe  ** ThermostatSetpoint:DualSetpoint="BREAK_ROOM_3_Z42_THERMOSTAT" invalid Heating Setpoint Temperature Schedule Name="BREAK_ROOM_3_Z42_HEATINGSETPOINT" not found.
   ** Severe  ** ThermostatSetpoint:DualSetpoint="BREAK_ROOM_3_Z42_THERMOSTAT" invalid Cooling Setpoint Temperature Schedule Name="BREAK_ROOM_3_Z42_COOLINGSETPOINT" not found.
   ** Severe  ** ThermostatSetpoint:DualSetpoint="MECHANICAL_3_Z43_THERMOSTAT" invalid Heating Setpoint Temperature Schedule Name="MECHANICAL_3_Z43_HEATINGSETPOINT" not found.
   ** Severe  ** ThermostatSetpoint:DualSetpoint="MECHANICAL_3_Z43_THERMOSTAT" invalid Cooling Setpoint Temperature Schedule Name="MECHANICAL_3_Z43_COOLINGSETPOINT" not found.
   ** Severe  ** ThermostatSetpoint:DualSetpoint="OFFICE_OPEN_3_Z44_THERMOSTAT" invalid Heating Setpoint Temperature Schedule Name="OFFICE_OPEN_3_Z44_HEATINGSETPOINT" not found.
   ** Severe  ** ThermostatSetpoint:DualSetpoint="OFFICE_OPEN_3_Z44_THERMOSTAT" invalid Cooling Setpoint Temperature Schedule Name="OFFICE_OPEN_3_Z44_COOLINGSETPOINT" not found.
   ** Severe  ** ThermostatSetpoint:DualSetpoint="OFFICE_PRIVATE_3_Z45_THERMOSTAT" invalid Heating Setpoint Temperature Schedule Name="OFFICE_PRIVATE_3_Z45_HEATINGSETPOINT" not found.
   ** Severe  ** ThermostatSetpoint:DualSetpoint="OFFICE_PRIVATE_3_Z45_THERMOSTAT" invalid Cooling Setpoint Temperature Schedule Name="OFFICE_PRIVATE_3_Z45_COOLINGSETPOINT" not found.
   ** Severe  ** ThermostatSetpoint:DualSetpoint="STORAGE_3_Z46_THERMOSTAT" invalid Heating Setpoint Temperature Schedule Name="STORAGE_3_Z46_HEATINGSETPOINT" not found.
   ** Severe  ** ThermostatSetpoint:DualSetpoint="STORAGE_3_Z46_THERMOSTAT" invalid Cooling Setpoint Temperature Schedule Name="STORAGE_3_Z46_COOLINGSETPOINT" not found.
   ** Severe  ** ThermostatSetpoint:DualSetpoint="OFFICE_OPEN_3_2_Z47_THERMOSTAT" invalid Heating Setpoint Temperature Schedule Name="OFFICE_OPEN_3_2_Z47_HEATINGSETPOINT" not found.
   ** Severe  ** ThermostatSetpoint:DualSetpoint="OFFICE_OPEN_3_2_Z47_THERMOSTAT" invalid Cooling Setpoint Temperature Schedule Name="OFFICE_OPEN_3_2_Z47_COOLINGSETPOINT" not found.
   ** Severe  ** ThermostatSetpoint:DualSetpoint="OFFICE_OPEN_3_3_Z48_THERMOSTAT" invalid Heating Setpoint Temperature Schedule Name="OFFICE_OPEN_3_3_Z48_HEATINGSETPOINT" not found.
   ** Severe  ** ThermostatSetpoint:DualSetpoint="OFFICE_OPEN_3_3_Z48_THERMOSTAT" invalid Cooling Setpoint Temperature Schedule Name="OFFICE_OPEN_3_3_Z48_COOLINGSETPOINT" not found.
   ** Severe  ** ThermostatSetpoint:DualSetpoint="OFFICE_OPEN_3_4_Z49_THERMOSTAT" invalid Heating Setpoint Temperature Schedule Name="OFFICE_OPEN_3_4_Z49_HEATINGSETPOINT" not found.
   ** Severe  ** ThermostatSetpoint:DualSetpoint="OFFICE_OPEN_3_4_Z49_THERMOSTAT" invalid Cooling Setpoint Temperature Schedule Name="OFFICE_OPEN_3_4_Z49_COOLINGSETPOINT" not found.
   ** Severe  ** ThermostatSetpoint:DualSetpoint="OFFICE_OPEN_3_5_Z50_THERMOSTAT" invalid Heating Setpoint Temperature Schedule Name="OFFICE_OPEN_3_5_Z50_HEATINGSETPOINT" not found.
   ** Severe  ** ThermostatSetpoint:DualSetpoint="OFFICE_OPEN_3_5_Z50_THERMOSTAT" invalid Cooling Setpoint Temperature Schedule Name="OFFICE_OPEN_3_5_Z50_COOLINGSETPOINT" not found.
   ** Severe  ** ThermostatSetpoint:DualSetpoint="OFFICE_OPEN_3_6_Z51_THERMOSTAT" invalid Heating Setpoint Temperature Schedule Name="OFFICE_OPEN_3_6_Z51_HEATINGSETPOINT" not found.
   ** Severe  ** ThermostatSetpoint:DualSetpoint="OFFICE_OPEN_3_6_Z51_THERMOSTAT" invalid Cooling Setpoint Temperature Schedule Name="OFFICE_OPEN_3_6_Z51_COOLINGSETPOINT" not found.
   ** Severe  ** ThermostatSetpoint:DualSetpoint="LOBBY_4_Z52_THERMOSTAT" invalid Heating Setpoint Temperature Schedule Name="LOBBY_4_Z52_HEATINGSETPOINT" not found.
   ** Severe  ** ThermostatSetpoint:DualSetpoint="LOBBY_4_Z52_THERMOSTAT" invalid Cooling Setpoint Temperature Schedule Name="LOBBY_4_Z52_COOLINGSETPOINT" not found.
   ** Severe  ** ThermostatSetpoint:DualSetpoint="CONFERENCE_4_Z53_THERMOSTAT" invalid Heating Setpoint Temperature Schedule Name="CONFERENCE_4_Z53_HEATINGSETPOINT" not found.
   ** Severe  ** ThermostatSetpoint:DualSetpoint="CONFERENCE_4_Z53_THERMOSTAT" invalid Cooling Setpoint Temperature Schedule Name="CONFERENCE_4_Z53_COOLINGSETPOINT" not found.
   ** Severe  ** ThermostatSetpoint:DualSetpoint="BREAK_ROOM_4_Z54_THERMOSTAT" invalid Heating Setpoint Temperature Schedule Name="BREAK_ROOM_4_Z54_HEATINGSETPOINT" not found.
   ** Severe  ** ThermostatSetpoint:DualSetpoint="BREAK_ROOM_4_Z54_THERMOSTAT" invalid Cooling Setpoint Temperature Schedule Name="BREAK_ROOM_4_Z54_COOLINGSETPOINT" not found.
   ** Severe  ** ThermostatSetpoint:DualSetpoint="MECHANICAL_4_Z55_THERMOSTAT" invalid Heating Setpoint Temperature Schedule Name="MECHANICAL_4_Z55_HEATINGSETPOINT" not found.
   ** Severe  ** ThermostatSetpoint:DualSetpoint="MECHANICAL_4_Z55_THERMOSTAT" invalid Cooling Setpoint Temperature Schedule Name="MECHANICAL_4_Z55_COOLINGSETPOINT" not found.
   ** Severe  ** ThermostatSetpoint:DualSetpoint="OFFICE_OPEN_4_Z56_THERMOSTAT" invalid Heating Setpoint Temperature Schedule Name="OFFICE_OPEN_4_Z56_HEATINGSETPOINT" not found.
   ** Severe  ** ThermostatSetpoint:DualSetpoint="OFFICE_OPEN_4_Z56_THERMOSTAT" invalid Cooling Setpoint Temperature Schedule Name="OFFICE_OPEN_4_Z56_COOLINGSETPOINT" not found.
   ** Severe  ** ThermostatSetpoint:DualSetpoint="OFFICE_PRIVATE_4_Z57_THERMOSTAT" invalid Heating Setpoint Temperature Schedule Name="OFFICE_PRIVATE_4_Z57_HEATINGSETPOINT" not found.
   ** Severe  ** ThermostatSetpoint:DualSetpoint="OFFICE_PRIVATE_4_Z57_THERMOSTAT" invalid Cooling Setpoint Temperature Schedule Name="OFFICE_PRIVATE_4_Z57_COOLINGSETPOINT" not found.
   ** Severe  ** ThermostatSetpoint:DualSetpoint="STORAGE_4_Z58_THERMOSTAT" invalid Heating Setpoint Temperature Schedule Name="STORAGE_4_Z58_HEATINGSETPOINT" not found.
   ** Severe  ** ThermostatSetpoint:DualSetpoint="STORAGE_4_Z58_THERMOSTAT" invalid Cooling Setpoint Temperature Schedule Name="STORAGE_4_Z58_COOLINGSETPOINT" not found.
   ** Severe  ** ThermostatSetpoint:DualSetpoint="OFFICE_OPEN_4_2_Z59_THERMOSTAT" invalid Heating Setpoint Temperature Schedule Name="OFFICE_OPEN_4_2_Z59_HEATINGSETPOINT" not found.
   ** Severe  ** ThermostatSetpoint:DualSetpoint="OFFICE_OPEN_4_2_Z59_THERMOSTAT" invalid Cooling Setpoint Temperature Schedule Name="OFFICE_OPEN_4_2_Z59_COOLINGSETPOINT" not found.
   ** Severe  ** ThermostatSetpoint:DualSetpoint="OFFICE_OPEN_4_3_Z60_THERMOSTAT" invalid Heating Setpoint Temperature Schedule Name="OFFICE_OPEN_4_3_Z60_HEATINGSETPOINT" not found.
   ** Severe  ** ThermostatSetpoint:DualSetpoint="OFFICE_OPEN_4_3_Z60_THERMOSTAT" invalid Cooling Setpoint Temperature Schedule Name="OFFICE_OPEN_4_3_Z60_COOLINGSETPOINT" not found.
   ** Severe  ** ThermostatSetpoint:DualSetpoint="OFFICE_OPEN_4_4_Z61_THERMOSTAT" invalid Heating Setpoint Temperature Schedule Name="OFFICE_OPEN_4_4_Z61_HEATINGSETPOINT" not found.
   ** Severe  ** ThermostatSetpoint:DualSetpoint="OFFICE_OPEN_4_4_Z61_THERMOSTAT" invalid Cooling Setpoint Temperature Schedule Name="OFFICE_OPEN_4_4_Z61_COOLINGSETPOINT" not found.
   ** Severe  ** ThermostatSetpoint:DualSetpoint="OFFICE_OPEN_4_5_Z62_THERMOSTAT" invalid Heating Setpoint Temperature Schedule Name="OFFICE_OPEN_4_5_Z62_HEATINGSETPOINT" not found.
   ** Severe  ** ThermostatSetpoint:DualSetpoint="OFFICE_OPEN_4_5_Z62_THERMOSTAT" invalid Cooling Setpoint Temperature Schedule Name="OFFICE_OPEN_4_5_Z62_COOLINGSETPOINT" not found.
   ** Severe  ** ThermostatSetpoint:DualSetpoint="OFFICE_OPEN_4_6_Z63_THERMOSTAT" invalid Heating Setpoint Temperature Schedule Name="OFFICE_OPEN_4_6_Z63_HEATINGSETPOINT" not found.
   ** Severe  ** ThermostatSetpoint:DualSetpoint="OFFICE_OPEN_4_6_Z63_THERMOSTAT" invalid Cooling Setpoint Temperature Schedule Name="OFFICE_OPEN_4_6_Z63_COOLINGSETPOINT" not found.
   ** Severe  ** ThermostatSetpoint:DualSetpoint="OFFICE_OPEN_4_7_Z64_THERMOSTAT" invalid Heating Setpoint Temperature Schedule Name="OFFICE_OPEN_4_7_Z64_HEATINGSETPOINT" not found.
   ** Severe  ** ThermostatSetpoint:DualSetpoint="OFFICE_OPEN_4_7_Z64_THERMOSTAT" invalid Cooling Setpoint Temperature Schedule Name="OFFICE_OPEN_4_7_Z64_COOLINGSETPOINT" not found.
   ** Severe  ** GetStagedDualSetpoint: Errors with invalid names in ZoneControl:Thermostat:StagedDualSetpoint objects.
   **   ~~~   ** ...These will not be read in.  Other errors may occur.
   **  Fatal  ** Errors getting Zone Control input data.  Preceding condition(s) cause termination.
   ...Summary of Errors that led to program termination:
   ..... Reference severe error count=194
   ..... Last severe error=GetStagedDualSetpoint: Errors with invalid names in ZoneControl:Thermostat:StagedDualSetpoint objects.
   ************* Warning:  Node connection errors not checked - most system input has not been read (see previous warning).
   ************* Fatal error -- final processing.  Program exited before simulations began.  See previous error messages.
   ************* EnergyPlus Warmup Error Summary. During Warmup: 0 Warning; 0 Severe Errors.
   ************* EnergyPlus Sizing Error Summary. During Sizing: 0 Warning; 0 Severe Errors.
   ************* EnergyPlus Terminated--Fatal Error Detected. 431 Warning; 194 Severe Errors; Elapsed Time=00hr 00min  0.53sec
