Program Version,EnergyPlus, Version 24.2.0-94a887817b, YMD=2025.11.02 18:16,
Var Type (reported time step),Var Report Type,Variable Name [Units]
Zone,Meter,Electricity:Facility [J]
Zone,Meter,Electricity:Building [J]
Zone,Meter,Electricity:Zone:LOBBY_0 [J]
Zone,Meter,Electricity:SpaceType:GENERAL [J]
Zone,Meter,InteriorLights:Electricity [J]
Zone,Meter,InteriorLights:Electricity:Zone:LOBBY_0 [J]
Zone,Meter,InteriorLights:Electricity:SpaceType:GENERAL [J]
Zone,Meter,General:InteriorLights:Electricity [J]
Zone,Meter,General:InteriorLights:Electricity:Zone:LOBBY_0 [J]
Zone,Meter,General:InteriorLights:Electricity:SpaceType:GENERAL [J]
Zone,Meter,Electricity:Zone:MECHANICAL_0 [J]
Zone,Meter,InteriorLights:Electricity:Zone:MECHANICAL_0 [J]
Zone,Meter,General:InteriorLights:Electricity:Zone:MECHANICAL_0 [J]
Zone,Meter,Electricity:Zone:OFFICE_PRIVATE_0 [J]
Zone,Meter,InteriorLights:Electricity:Zone:OFFICE_PRIVATE_0 [J]
Zone,Meter,General:InteriorLights:Electricity:Zone:OFFICE_PRIVATE_0 [J]
Zone,Meter,Electricity:Zone:STORAGE_0 [J]
Zone,Meter,InteriorLights:Electricity:Zone:STORAGE_0 [J]
Zone,Meter,General:InteriorLights:Electricity:Zone:STORAGE_0 [J]
Zone,Meter,Electricity:Zone:LOBBY_1 [J]
Zone,Meter,InteriorLights:Electricity:Zone:LOBBY_1 [J]
Zone,Meter,General:InteriorLights:Electricity:Zone:LOBBY_1 [J]
Zone,Meter,Electricity:Zone:CONFERENCE_1 [J]
Zone,Meter,InteriorLights:Electricity:Zone:CONFERENCE_1 [J]
Zone,Meter,General:InteriorLights:Electricity:Zone:CONFERENCE_1 [J]
Zone,Meter,Electricity:Zone:BREAK_ROOM_1 [J]
Zone,Meter,InteriorLights:Electricity:Zone:BREAK_ROOM_1 [J]
Zone,Meter,General:InteriorLights:Electricity:Zone:BREAK_ROOM_1 [J]
Zone,Meter,Electricity:Zone:OFFICE_PRIVATE_1 [J]
Zone,Meter,InteriorLights:Electricity:Zone:OFFICE_PRIVATE_1 [J]
Zone,Meter,General:InteriorLights:Electricity:Zone:OFFICE_PRIVATE_1 [J]
Zone,Meter,Electricity:Zone:STORAGE_1 [J]
Zone,Meter,InteriorLights:Electricity:Zone:STORAGE_1 [J]
Zone,Meter,General:InteriorLights:Electricity:Zone:STORAGE_1 [J]
Zone,Meter,Electricity:Zone:CONFERENCE_2 [J]
Zone,Meter,InteriorLights:Electricity:Zone:CONFERENCE_2 [J]
Zone,Meter,General:InteriorLights:Electricity:Zone:CONFERENCE_2 [J]
Zone,Meter,Electricity:Zone:MECHANICAL_2 [J]
Zone,Meter,InteriorLights:Electricity:Zone:MECHANICAL_2 [J]
Zone,Meter,General:InteriorLights:Electricity:Zone:MECHANICAL_2 [J]
Zone,Meter,Electricity:Zone:OFFICE_OPEN_2 [J]
Zone,Meter,InteriorLights:Electricity:Zone:OFFICE_OPEN_2 [J]
Zone,Meter,General:InteriorLights:Electricity:Zone:OFFICE_OPEN_2 [J]
Zone,Meter,Electricity:Zone:LOBBY_3 [J]
Zone,Meter,InteriorLights:Electricity:Zone:LOBBY_3 [J]
Zone,Meter,General:InteriorLights:Electricity:Zone:LOBBY_3 [J]
Zone,Meter,Electricity:Zone:CONFERENCE_3 [J]
Zone,Meter,InteriorLights:Electricity:Zone:CONFERENCE_3 [J]
Zone,Meter,General:InteriorLights:Electricity:Zone:CONFERENCE_3 [J]
Zone,Meter,Electricity:Zone:BREAK_ROOM_3 [J]
Zone,Meter,InteriorLights:Electricity:Zone:BREAK_ROOM_3 [J]
Zone,Meter,General:InteriorLights:Electricity:Zone:BREAK_ROOM_3 [J]
Zone,Meter,Electricity:Zone:MECHANICAL_3 [J]
Zone,Meter,InteriorLights:Electricity:Zone:MECHANICAL_3 [J]
Zone,Meter,General:InteriorLights:Electricity:Zone:MECHANICAL_3 [J]
Zone,Meter,Electricity:Zone:OFFICE_OPEN_3 [J]
Zone,Meter,InteriorLights:Electricity:Zone:OFFICE_OPEN_3 [J]
Zone,Meter,General:InteriorLights:Electricity:Zone:OFFICE_OPEN_3 [J]
Zone,Meter,Electricity:Zone:OFFICE_PRIVATE_3 [J]
Zone,Meter,InteriorLights:Electricity:Zone:OFFICE_PRIVATE_3 [J]
Zone,Meter,General:InteriorLights:Electricity:Zone:OFFICE_PRIVATE_3 [J]
Zone,Meter,Electricity:Zone:STORAGE_3 [J]
Zone,Meter,InteriorLights:Electricity:Zone:STORAGE_3 [J]
Zone,Meter,General:InteriorLights:Electricity:Zone:STORAGE_3 [J]
Zone,Meter,Electricity:Zone:LOBBY_4 [J]
Zone,Meter,InteriorLights:Electricity:Zone:LOBBY_4 [J]
Zone,Meter,General:InteriorLights:Electricity:Zone:LOBBY_4 [J]
Zone,Meter,Electricity:Zone:BREAK_ROOM_4 [J]
Zone,Meter,InteriorLights:Electricity:Zone:BREAK_ROOM_4 [J]
Zone,Meter,General:InteriorLights:Electricity:Zone:BREAK_ROOM_4 [J]
Zone,Meter,Electricity:Zone:MECHANICAL_4 [J]
Zone,Meter,InteriorLights:Electricity:Zone:MECHANICAL_4 [J]
Zone,Meter,General:InteriorLights:Electricity:Zone:MECHANICAL_4 [J]
Zone,Meter,Electricity:Zone:OFFICE_OPEN_4 [J]
Zone,Meter,InteriorLights:Electricity:Zone:OFFICE_OPEN_4 [J]
Zone,Meter,General:InteriorLights:Electricity:Zone:OFFICE_OPEN_4 [J]
Zone,Meter,Electricity:Zone:OFFICE_PRIVATE_4 [J]
Zone,Meter,InteriorLights:Electricity:Zone:OFFICE_PRIVATE_4 [J]
Zone,Meter,General:InteriorLights:Electricity:Zone:OFFICE_PRIVATE_4 [J]
Zone,Meter,Electricity:Zone:CONFERENCE_5 [J]
Zone,Meter,InteriorLights:Electricity:Zone:CONFERENCE_5 [J]
Zone,Meter,General:InteriorLights:Electricity:Zone:CONFERENCE_5 [J]
Zone,Meter,Electricity:Zone:MECHANICAL_5 [J]
Zone,Meter,InteriorLights:Electricity:Zone:MECHANICAL_5 [J]
Zone,Meter,General:InteriorLights:Electricity:Zone:MECHANICAL_5 [J]
Zone,Meter,Electricity:Zone:OFFICE_OPEN_5 [J]
Zone,Meter,InteriorLights:Electricity:Zone:OFFICE_OPEN_5 [J]
Zone,Meter,General:InteriorLights:Electricity:Zone:OFFICE_OPEN_5 [J]
Zone,Meter,Electricity:Zone:LOBBY_6 [J]
Zone,Meter,InteriorLights:Electricity:Zone:LOBBY_6 [J]
Zone,Meter,General:InteriorLights:Electricity:Zone:LOBBY_6 [J]
Zone,Meter,Electricity:Zone:CONFERENCE_6 [J]
Zone,Meter,InteriorLights:Electricity:Zone:CONFERENCE_6 [J]
Zone,Meter,General:InteriorLights:Electricity:Zone:CONFERENCE_6 [J]
Zone,Meter,Electricity:Zone:MECHANICAL_6 [J]
Zone,Meter,InteriorLights:Electricity:Zone:MECHANICAL_6 [J]
Zone,Meter,General:InteriorLights:Electricity:Zone:MECHANICAL_6 [J]
Zone,Meter,Electricity:Zone:OFFICE_PRIVATE_6 [J]
Zone,Meter,InteriorLights:Electricity:Zone:OFFICE_PRIVATE_6 [J]
Zone,Meter,General:InteriorLights:Electricity:Zone:OFFICE_PRIVATE_6 [J]
Zone,Meter,Electricity:Zone:STORAGE_6 [J]
Zone,Meter,InteriorLights:Electricity:Zone:STORAGE_6 [J]
Zone,Meter,General:InteriorLights:Electricity:Zone:STORAGE_6 [J]
Zone,Meter,Electricity:Zone:LOBBY_7 [J]
Zone,Meter,InteriorLights:Electricity:Zone:LOBBY_7 [J]
Zone,Meter,General:InteriorLights:Electricity:Zone:LOBBY_7 [J]
Zone,Meter,Electricity:Zone:CONFERENCE_7 [J]
Zone,Meter,InteriorLights:Electricity:Zone:CONFERENCE_7 [J]
Zone,Meter,General:InteriorLights:Electricity:Zone:CONFERENCE_7 [J]
Zone,Meter,Electricity:Zone:MECHANICAL_7 [J]
Zone,Meter,InteriorLights:Electricity:Zone:MECHANICAL_7 [J]
Zone,Meter,General:InteriorLights:Electricity:Zone:MECHANICAL_7 [J]
Zone,Meter,Electricity:Zone:OFFICE_OPEN_7 [J]
Zone,Meter,InteriorLights:Electricity:Zone:OFFICE_OPEN_7 [J]
Zone,Meter,General:InteriorLights:Electricity:Zone:OFFICE_OPEN_7 [J]
Zone,Meter,Electricity:Zone:OFFICE_PRIVATE_7 [J]
Zone,Meter,InteriorLights:Electricity:Zone:OFFICE_PRIVATE_7 [J]
Zone,Meter,General:InteriorLights:Electricity:Zone:OFFICE_PRIVATE_7 [J]
Zone,Meter,Electricity:Zone:STORAGE_7 [J]
Zone,Meter,InteriorLights:Electricity:Zone:STORAGE_7 [J]
Zone,Meter,General:InteriorLights:Electricity:Zone:STORAGE_7 [J]
Zone,Meter,Electricity:Zone:LOBBY_8 [J]
Zone,Meter,InteriorLights:Electricity:Zone:LOBBY_8 [J]
Zone,Meter,General:InteriorLights:Electricity:Zone:LOBBY_8 [J]
Zone,Meter,Electricity:Zone:MECHANICAL_8 [J]
Zone,Meter,InteriorLights:Electricity:Zone:MECHANICAL_8 [J]
Zone,Meter,General:InteriorLights:Electricity:Zone:MECHANICAL_8 [J]
Zone,Meter,Electricity:Zone:BREAK_ROOM_9 [J]
Zone,Meter,InteriorLights:Electricity:Zone:BREAK_ROOM_9 [J]
Zone,Meter,General:InteriorLights:Electricity:Zone:BREAK_ROOM_9 [J]
Zone,Meter,Electricity:Zone:OFFICE_OPEN_9 [J]
Zone,Meter,InteriorLights:Electricity:Zone:OFFICE_OPEN_9 [J]
Zone,Meter,General:InteriorLights:Electricity:Zone:OFFICE_OPEN_9 [J]
Zone,Meter,Electricity:Zone:OFFICE_PRIVATE_9 [J]
Zone,Meter,InteriorLights:Electricity:Zone:OFFICE_PRIVATE_9 [J]
Zone,Meter,General:InteriorLights:Electricity:Zone:OFFICE_PRIVATE_9 [J]
Zone,Meter,Electricity:Zone:STORAGE_9 [J]
Zone,Meter,InteriorLights:Electricity:Zone:STORAGE_9 [J]
Zone,Meter,General:InteriorLights:Electricity:Zone:STORAGE_9 [J]
Zone,Meter,Electricity:Zone:CONFERENCE_10 [J]
Zone,Meter,InteriorLights:Electricity:Zone:CONFERENCE_10 [J]
Zone,Meter,General:InteriorLights:Electricity:Zone:CONFERENCE_10 [J]
Zone,Meter,Electricity:Zone:BREAK_ROOM_10 [J]
Zone,Meter,InteriorLights:Electricity:Zone:BREAK_ROOM_10 [J]
Zone,Meter,General:InteriorLights:Electricity:Zone:BREAK_ROOM_10 [J]
Zone,Meter,Electricity:Zone:OFFICE_PRIVATE_10 [J]
Zone,Meter,InteriorLights:Electricity:Zone:OFFICE_PRIVATE_10 [J]
Zone,Meter,General:InteriorLights:Electricity:Zone:OFFICE_PRIVATE_10 [J]
Zone,Meter,Electricity:Zone:STORAGE_10 [J]
Zone,Meter,InteriorLights:Electricity:Zone:STORAGE_10 [J]
Zone,Meter,General:InteriorLights:Electricity:Zone:STORAGE_10 [J]
Zone,Meter,Electricity:Zone:CONFERENCE_11 [J]
Zone,Meter,InteriorLights:Electricity:Zone:CONFERENCE_11 [J]
Zone,Meter,General:InteriorLights:Electricity:Zone:CONFERENCE_11 [J]
Zone,Meter,Electricity:Zone:BREAK_ROOM_11 [J]
Zone,Meter,InteriorLights:Electricity:Zone:BREAK_ROOM_11 [J]
Zone,Meter,General:InteriorLights:Electricity:Zone:BREAK_ROOM_11 [J]
Zone,Meter,Electricity:Zone:MECHANICAL_11 [J]
Zone,Meter,InteriorLights:Electricity:Zone:MECHANICAL_11 [J]
Zone,Meter,General:InteriorLights:Electricity:Zone:MECHANICAL_11 [J]
Zone,Meter,Electricity:Zone:OFFICE_OPEN_11 [J]
Zone,Meter,InteriorLights:Electricity:Zone:OFFICE_OPEN_11 [J]
Zone,Meter,General:InteriorLights:Electricity:Zone:OFFICE_OPEN_11 [J]
Zone,Meter,Electricity:Zone:OFFICE_PRIVATE_11 [J]
Zone,Meter,InteriorLights:Electricity:Zone:OFFICE_PRIVATE_11 [J]
Zone,Meter,General:InteriorLights:Electricity:Zone:OFFICE_PRIVATE_11 [J]
Zone,Meter,Electricity:Zone:STORAGE_11 [J]
Zone,Meter,InteriorLights:Electricity:Zone:STORAGE_11 [J]
Zone,Meter,General:InteriorLights:Electricity:Zone:STORAGE_11 [J]
Zone,Meter,Electricity:Zone:LOBBY_12 [J]
Zone,Meter,InteriorLights:Electricity:Zone:LOBBY_12 [J]
Zone,Meter,General:InteriorLights:Electricity:Zone:LOBBY_12 [J]
Zone,Meter,Electricity:Zone:CONFERENCE_12 [J]
Zone,Meter,InteriorLights:Electricity:Zone:CONFERENCE_12 [J]
Zone,Meter,General:InteriorLights:Electricity:Zone:CONFERENCE_12 [J]
Zone,Meter,Electricity:Zone:STORAGE_12 [J]
Zone,Meter,InteriorLights:Electricity:Zone:STORAGE_12 [J]
Zone,Meter,General:InteriorLights:Electricity:Zone:STORAGE_12 [J]
Zone,Meter,Electricity:Zone:LOBBY_13 [J]
Zone,Meter,InteriorLights:Electricity:Zone:LOBBY_13 [J]
Zone,Meter,General:InteriorLights:Electricity:Zone:LOBBY_13 [J]
Zone,Meter,Electricity:Zone:CONFERENCE_13 [J]
Zone,Meter,InteriorLights:Electricity:Zone:CONFERENCE_13 [J]
Zone,Meter,General:InteriorLights:Electricity:Zone:CONFERENCE_13 [J]
Zone,Meter,Electricity:Zone:MECHANICAL_13 [J]
Zone,Meter,InteriorLights:Electricity:Zone:MECHANICAL_13 [J]
Zone,Meter,General:InteriorLights:Electricity:Zone:MECHANICAL_13 [J]
Zone,Meter,Electricity:Zone:OFFICE_PRIVATE_13 [J]
Zone,Meter,InteriorLights:Electricity:Zone:OFFICE_PRIVATE_13 [J]
Zone,Meter,General:InteriorLights:Electricity:Zone:OFFICE_PRIVATE_13 [J]
Zone,Meter,Electricity:Zone:STORAGE_13 [J]
Zone,Meter,InteriorLights:Electricity:Zone:STORAGE_13 [J]
Zone,Meter,General:InteriorLights:Electricity:Zone:STORAGE_13 [J]
Zone,Meter,Electricity:Zone:LOBBY_14 [J]
Zone,Meter,InteriorLights:Electricity:Zone:LOBBY_14 [J]
Zone,Meter,General:InteriorLights:Electricity:Zone:LOBBY_14 [J]
Zone,Meter,Electricity:Zone:CONFERENCE_14 [J]
Zone,Meter,InteriorLights:Electricity:Zone:CONFERENCE_14 [J]
Zone,Meter,General:InteriorLights:Electricity:Zone:CONFERENCE_14 [J]
Zone,Meter,Electricity:Zone:BREAK_ROOM_14 [J]
Zone,Meter,InteriorLights:Electricity:Zone:BREAK_ROOM_14 [J]
Zone,Meter,General:InteriorLights:Electricity:Zone:BREAK_ROOM_14 [J]
Zone,Meter,Electricity:Zone:OFFICE_OPEN_14 [J]
Zone,Meter,InteriorLights:Electricity:Zone:OFFICE_OPEN_14 [J]
Zone,Meter,General:InteriorLights:Electricity:Zone:OFFICE_OPEN_14 [J]
Zone,Meter,Electricity:Zone:OFFICE_PRIVATE_14 [J]
Zone,Meter,InteriorLights:Electricity:Zone:OFFICE_PRIVATE_14 [J]
Zone,Meter,General:InteriorLights:Electricity:Zone:OFFICE_PRIVATE_14 [J]
Zone,Meter,Electricity:Zone:CONFERENCE_15 [J]
Zone,Meter,InteriorLights:Electricity:Zone:CONFERENCE_15 [J]
Zone,Meter,General:InteriorLights:Electricity:Zone:CONFERENCE_15 [J]
Zone,Meter,Electricity:Zone:BREAK_ROOM_15 [J]
Zone,Meter,InteriorLights:Electricity:Zone:BREAK_ROOM_15 [J]
Zone,Meter,General:InteriorLights:Electricity:Zone:BREAK_ROOM_15 [J]
Zone,Meter,Electricity:Zone:MECHANICAL_15 [J]
Zone,Meter,InteriorLights:Electricity:Zone:MECHANICAL_15 [J]
Zone,Meter,General:InteriorLights:Electricity:Zone:MECHANICAL_15 [J]
Zone,Meter,Electricity:Zone:OFFICE_PRIVATE_15 [J]
Zone,Meter,InteriorLights:Electricity:Zone:OFFICE_PRIVATE_15 [J]
Zone,Meter,General:InteriorLights:Electricity:Zone:OFFICE_PRIVATE_15 [J]
Zone,Meter,Electricity:Zone:LOBBY_16 [J]
Zone,Meter,InteriorLights:Electricity:Zone:LOBBY_16 [J]
Zone,Meter,General:InteriorLights:Electricity:Zone:LOBBY_16 [J]
Zone,Meter,Electricity:Zone:BREAK_ROOM_16 [J]
Zone,Meter,InteriorLights:Electricity:Zone:BREAK_ROOM_16 [J]
Zone,Meter,General:InteriorLights:Electricity:Zone:BREAK_ROOM_16 [J]
Zone,Meter,Electricity:Zone:OFFICE_OPEN_16 [J]
Zone,Meter,InteriorLights:Electricity:Zone:OFFICE_OPEN_16 [J]
Zone,Meter,General:InteriorLights:Electricity:Zone:OFFICE_OPEN_16 [J]
Zone,Meter,Electricity:Zone:OFFICE_PRIVATE_16 [J]
Zone,Meter,InteriorLights:Electricity:Zone:OFFICE_PRIVATE_16 [J]
Zone,Meter,General:InteriorLights:Electricity:Zone:OFFICE_PRIVATE_16 [J]
Zone,Meter,Electricity:Zone:STORAGE_16 [J]
Zone,Meter,InteriorLights:Electricity:Zone:STORAGE_16 [J]
Zone,Meter,General:InteriorLights:Electricity:Zone:STORAGE_16 [J]
Zone,Meter,Electricity:Zone:CONFERENCE_17 [J]
Zone,Meter,InteriorLights:Electricity:Zone:CONFERENCE_17 [J]
Zone,Meter,General:InteriorLights:Electricity:Zone:CONFERENCE_17 [J]
Zone,Meter,Electricity:Zone:MECHANICAL_17 [J]
Zone,Meter,InteriorLights:Electricity:Zone:MECHANICAL_17 [J]
Zone,Meter,General:InteriorLights:Electricity:Zone:MECHANICAL_17 [J]
Zone,Meter,Electricity:Zone:OFFICE_OPEN_17 [J]
Zone,Meter,InteriorLights:Electricity:Zone:OFFICE_OPEN_17 [J]
Zone,Meter,General:InteriorLights:Electricity:Zone:OFFICE_OPEN_17 [J]
Zone,Meter,Electricity:Zone:OFFICE_PRIVATE_17 [J]
Zone,Meter,InteriorLights:Electricity:Zone:OFFICE_PRIVATE_17 [J]
Zone,Meter,General:InteriorLights:Electricity:Zone:OFFICE_PRIVATE_17 [J]
Zone,Meter,Electricity:Zone:STORAGE_17 [J]
Zone,Meter,InteriorLights:Electricity:Zone:STORAGE_17 [J]
Zone,Meter,General:InteriorLights:Electricity:Zone:STORAGE_17 [J]
Zone,Meter,Electricity:Zone:BREAK_ROOM_18 [J]
Zone,Meter,InteriorLights:Electricity:Zone:BREAK_ROOM_18 [J]
Zone,Meter,General:InteriorLights:Electricity:Zone:BREAK_ROOM_18 [J]
Zone,Meter,Electricity:Zone:MECHANICAL_18 [J]
Zone,Meter,InteriorLights:Electricity:Zone:MECHANICAL_18 [J]
Zone,Meter,General:InteriorLights:Electricity:Zone:MECHANICAL_18 [J]
Zone,Meter,Electricity:Zone:OFFICE_PRIVATE_18 [J]
Zone,Meter,InteriorLights:Electricity:Zone:OFFICE_PRIVATE_18 [J]
Zone,Meter,General:InteriorLights:Electricity:Zone:OFFICE_PRIVATE_18 [J]
Zone,Meter,Electricity:Zone:STORAGE_18 [J]
Zone,Meter,InteriorLights:Electricity:Zone:STORAGE_18 [J]
Zone,Meter,General:InteriorLights:Electricity:Zone:STORAGE_18 [J]
Zone,Meter,Electricity:Zone:LOBBY_19 [J]
Zone,Meter,InteriorLights:Electricity:Zone:LOBBY_19 [J]
Zone,Meter,General:InteriorLights:Electricity:Zone:LOBBY_19 [J]
Zone,Meter,Electricity:Zone:BREAK_ROOM_19 [J]
Zone,Meter,InteriorLights:Electricity:Zone:BREAK_ROOM_19 [J]
Zone,Meter,General:InteriorLights:Electricity:Zone:BREAK_ROOM_19 [J]
Zone,Meter,Electricity:Zone:OFFICE_OPEN_19 [J]
Zone,Meter,InteriorLights:Electricity:Zone:OFFICE_OPEN_19 [J]
Zone,Meter,General:InteriorLights:Electricity:Zone:OFFICE_OPEN_19 [J]
Zone,Meter,Electricity:Zone:OFFICE_PRIVATE_19 [J]
Zone,Meter,InteriorLights:Electricity:Zone:OFFICE_PRIVATE_19 [J]
Zone,Meter,General:InteriorLights:Electricity:Zone:OFFICE_PRIVATE_19 [J]
Zone,Meter,Electricity:Zone:STORAGE_19 [J]
Zone,Meter,InteriorLights:Electricity:Zone:STORAGE_19 [J]
Zone,Meter,General:InteriorLights:Electricity:Zone:STORAGE_19 [J]
Zone,Meter,Electricity:Zone:LOBBY_20 [J]
Zone,Meter,InteriorLights:Electricity:Zone:LOBBY_20 [J]
Zone,Meter,General:InteriorLights:Electricity:Zone:LOBBY_20 [J]
Zone,Meter,Electricity:Zone:CONFERENCE_20 [J]
Zone,Meter,InteriorLights:Electricity:Zone:CONFERENCE_20 [J]
Zone,Meter,General:InteriorLights:Electricity:Zone:CONFERENCE_20 [J]
Zone,Meter,Electricity:Zone:BREAK_ROOM_20 [J]
Zone,Meter,InteriorLights:Electricity:Zone:BREAK_ROOM_20 [J]
Zone,Meter,General:InteriorLights:Electricity:Zone:BREAK_ROOM_20 [J]
Zone,Meter,Electricity:Zone:MECHANICAL_20 [J]
Zone,Meter,InteriorLights:Electricity:Zone:MECHANICAL_20 [J]
Zone,Meter,General:InteriorLights:Electricity:Zone:MECHANICAL_20 [J]
Zone,Meter,Electricity:Zone:OFFICE_PRIVATE_20 [J]
Zone,Meter,InteriorLights:Electricity:Zone:OFFICE_PRIVATE_20 [J]
Zone,Meter,General:InteriorLights:Electricity:Zone:OFFICE_PRIVATE_20 [J]
Zone,Meter,Electricity:Zone:LOBBY_21 [J]
Zone,Meter,InteriorLights:Electricity:Zone:LOBBY_21 [J]
Zone,Meter,General:InteriorLights:Electricity:Zone:LOBBY_21 [J]
Zone,Meter,Electricity:Zone:CONFERENCE_21 [J]
Zone,Meter,InteriorLights:Electricity:Zone:CONFERENCE_21 [J]
Zone,Meter,General:InteriorLights:Electricity:Zone:CONFERENCE_21 [J]
Zone,Meter,Electricity:Zone:BREAK_ROOM_21 [J]
Zone,Meter,InteriorLights:Electricity:Zone:BREAK_ROOM_21 [J]
Zone,Meter,General:InteriorLights:Electricity:Zone:BREAK_ROOM_21 [J]
Zone,Meter,Electricity:Zone:MECHANICAL_21 [J]
Zone,Meter,InteriorLights:Electricity:Zone:MECHANICAL_21 [J]
Zone,Meter,General:InteriorLights:Electricity:Zone:MECHANICAL_21 [J]
Zone,Meter,Electricity:Zone:OFFICE_PRIVATE_21 [J]
Zone,Meter,InteriorLights:Electricity:Zone:OFFICE_PRIVATE_21 [J]
Zone,Meter,General:InteriorLights:Electricity:Zone:OFFICE_PRIVATE_21 [J]
Zone,Meter,Electricity:Zone:STORAGE_21 [J]
Zone,Meter,InteriorLights:Electricity:Zone:STORAGE_21 [J]
Zone,Meter,General:InteriorLights:Electricity:Zone:STORAGE_21 [J]
Zone,Meter,Electricity:Zone:CONFERENCE_22 [J]
Zone,Meter,InteriorLights:Electricity:Zone:CONFERENCE_22 [J]
Zone,Meter,General:InteriorLights:Electricity:Zone:CONFERENCE_22 [J]
Zone,Meter,Electricity:Zone:MECHANICAL_22 [J]
Zone,Meter,InteriorLights:Electricity:Zone:MECHANICAL_22 [J]
Zone,Meter,General:InteriorLights:Electricity:Zone:MECHANICAL_22 [J]
Zone,Meter,Electricity:Zone:OFFICE_OPEN_22 [J]
Zone,Meter,InteriorLights:Electricity:Zone:OFFICE_OPEN_22 [J]
Zone,Meter,General:InteriorLights:Electricity:Zone:OFFICE_OPEN_22 [J]
Zone,Meter,Electricity:Zone:OFFICE_PRIVATE_22 [J]
Zone,Meter,InteriorLights:Electricity:Zone:OFFICE_PRIVATE_22 [J]
Zone,Meter,General:InteriorLights:Electricity:Zone:OFFICE_PRIVATE_22 [J]
Zone,Meter,Electricity:Zone:STORAGE_22 [J]
Zone,Meter,InteriorLights:Electricity:Zone:STORAGE_22 [J]
Zone,Meter,General:InteriorLights:Electricity:Zone:STORAGE_22 [J]
Zone,Meter,Electricity:Zone:LOBBY_23 [J]
Zone,Meter,InteriorLights:Electricity:Zone:LOBBY_23 [J]
Zone,Meter,General:InteriorLights:Electricity:Zone:LOBBY_23 [J]
Zone,Meter,Electricity:Zone:BREAK_ROOM_23 [J]
Zone,Meter,InteriorLights:Electricity:Zone:BREAK_ROOM_23 [J]
Zone,Meter,General:InteriorLights:Electricity:Zone:BREAK_ROOM_23 [J]
Zone,Meter,Electricity:Zone:MECHANICAL_23 [J]
Zone,Meter,InteriorLights:Electricity:Zone:MECHANICAL_23 [J]
Zone,Meter,General:InteriorLights:Electricity:Zone:MECHANICAL_23 [J]
Zone,Meter,Electricity:Zone:OFFICE_OPEN_23 [J]
Zone,Meter,InteriorLights:Electricity:Zone:OFFICE_OPEN_23 [J]
Zone,Meter,General:InteriorLights:Electricity:Zone:OFFICE_OPEN_23 [J]
Zone,Meter,Electricity:Zone:OFFICE_PRIVATE_23 [J]
Zone,Meter,InteriorLights:Electricity:Zone:OFFICE_PRIVATE_23 [J]
Zone,Meter,General:InteriorLights:Electricity:Zone:OFFICE_PRIVATE_23 [J]
Zone,Meter,Electricity:Zone:STORAGE_23 [J]
Zone,Meter,InteriorLights:Electricity:Zone:STORAGE_23 [J]
Zone,Meter,General:InteriorLights:Electricity:Zone:STORAGE_23 [J]
Zone,Meter,Electricity:Zone:BREAK_ROOM_25 [J]
Zone,Meter,InteriorLights:Electricity:Zone:BREAK_ROOM_25 [J]
Zone,Meter,General:InteriorLights:Electricity:Zone:BREAK_ROOM_25 [J]
Zone,Meter,Electricity:Zone:OFFICE_OPEN_25 [J]
Zone,Meter,InteriorLights:Electricity:Zone:OFFICE_OPEN_25 [J]
Zone,Meter,General:InteriorLights:Electricity:Zone:OFFICE_OPEN_25 [J]
Zone,Meter,Electricity:Zone:OFFICE_PRIVATE_25 [J]
Zone,Meter,InteriorLights:Electricity:Zone:OFFICE_PRIVATE_25 [J]
Zone,Meter,General:InteriorLights:Electricity:Zone:OFFICE_PRIVATE_25 [J]
Zone,Meter,Electricity:Zone:STORAGE_25 [J]
Zone,Meter,InteriorLights:Electricity:Zone:STORAGE_25 [J]
Zone,Meter,General:InteriorLights:Electricity:Zone:STORAGE_25 [J]
Zone,Meter,Electricity:Zone:LOBBY_26 [J]
Zone,Meter,InteriorLights:Electricity:Zone:LOBBY_26 [J]
Zone,Meter,General:InteriorLights:Electricity:Zone:LOBBY_26 [J]
Zone,Meter,Electricity:Zone:CONFERENCE_26 [J]
Zone,Meter,InteriorLights:Electricity:Zone:CONFERENCE_26 [J]
Zone,Meter,General:InteriorLights:Electricity:Zone:CONFERENCE_26 [J]
Zone,Meter,Electricity:Zone:BREAK_ROOM_26 [J]
Zone,Meter,InteriorLights:Electricity:Zone:BREAK_ROOM_26 [J]
Zone,Meter,General:InteriorLights:Electricity:Zone:BREAK_ROOM_26 [J]
Zone,Meter,Electricity:Zone:MECHANICAL_26 [J]
Zone,Meter,InteriorLights:Electricity:Zone:MECHANICAL_26 [J]
Zone,Meter,General:InteriorLights:Electricity:Zone:MECHANICAL_26 [J]
Zone,Meter,Electricity:Zone:OFFICE_OPEN_26 [J]
Zone,Meter,InteriorLights:Electricity:Zone:OFFICE_OPEN_26 [J]
Zone,Meter,General:InteriorLights:Electricity:Zone:OFFICE_OPEN_26 [J]
Zone,Meter,Electricity:Zone:STORAGE_26 [J]
Zone,Meter,InteriorLights:Electricity:Zone:STORAGE_26 [J]
Zone,Meter,General:InteriorLights:Electricity:Zone:STORAGE_26 [J]
Zone,Meter,Electricity:Zone:LOBBY_27 [J]
Zone,Meter,InteriorLights:Electricity:Zone:LOBBY_27 [J]
Zone,Meter,General:InteriorLights:Electricity:Zone:LOBBY_27 [J]
Zone,Meter,Electricity:Zone:CONFERENCE_27 [J]
Zone,Meter,InteriorLights:Electricity:Zone:CONFERENCE_27 [J]
Zone,Meter,General:InteriorLights:Electricity:Zone:CONFERENCE_27 [J]
Zone,Meter,Electricity:Zone:MECHANICAL_27 [J]
Zone,Meter,InteriorLights:Electricity:Zone:MECHANICAL_27 [J]
Zone,Meter,General:InteriorLights:Electricity:Zone:MECHANICAL_27 [J]
Zone,Meter,Electricity:Zone:OFFICE_OPEN_27 [J]
Zone,Meter,InteriorLights:Electricity:Zone:OFFICE_OPEN_27 [J]
Zone,Meter,General:InteriorLights:Electricity:Zone:OFFICE_OPEN_27 [J]
Zone,Meter,Electricity:Zone:OFFICE_PRIVATE_27 [J]
Zone,Meter,InteriorLights:Electricity:Zone:OFFICE_PRIVATE_27 [J]
Zone,Meter,General:InteriorLights:Electricity:Zone:OFFICE_PRIVATE_27 [J]
Zone,Meter,Electricity:Zone:CONFERENCE_28 [J]
Zone,Meter,InteriorLights:Electricity:Zone:CONFERENCE_28 [J]
Zone,Meter,General:InteriorLights:Electricity:Zone:CONFERENCE_28 [J]
Zone,Meter,Electricity:Zone:BREAK_ROOM_28 [J]
Zone,Meter,InteriorLights:Electricity:Zone:BREAK_ROOM_28 [J]
Zone,Meter,General:InteriorLights:Electricity:Zone:BREAK_ROOM_28 [J]
Zone,Meter,Electricity:Zone:MECHANICAL_28 [J]
Zone,Meter,InteriorLights:Electricity:Zone:MECHANICAL_28 [J]
Zone,Meter,General:InteriorLights:Electricity:Zone:MECHANICAL_28 [J]
Zone,Meter,Electricity:Zone:OFFICE_PRIVATE_28 [J]
Zone,Meter,InteriorLights:Electricity:Zone:OFFICE_PRIVATE_28 [J]
Zone,Meter,General:InteriorLights:Electricity:Zone:OFFICE_PRIVATE_28 [J]
Zone,Meter,Electricity:Zone:LOBBY_29 [J]
Zone,Meter,InteriorLights:Electricity:Zone:LOBBY_29 [J]
Zone,Meter,General:InteriorLights:Electricity:Zone:LOBBY_29 [J]
Zone,Meter,Electricity:Zone:CONFERENCE_29 [J]
Zone,Meter,InteriorLights:Electricity:Zone:CONFERENCE_29 [J]
Zone,Meter,General:InteriorLights:Electricity:Zone:CONFERENCE_29 [J]
Zone,Meter,Electricity:Zone:MECHANICAL_29 [J]
Zone,Meter,InteriorLights:Electricity:Zone:MECHANICAL_29 [J]
Zone,Meter,General:InteriorLights:Electricity:Zone:MECHANICAL_29 [J]
Zone,Meter,Electricity:Zone:OFFICE_OPEN_29 [J]
Zone,Meter,InteriorLights:Electricity:Zone:OFFICE_OPEN_29 [J]
Zone,Meter,General:InteriorLights:Electricity:Zone:OFFICE_OPEN_29 [J]
Zone,Meter,Electricity:Zone:OFFICE_PRIVATE_29 [J]
Zone,Meter,InteriorLights:Electricity:Zone:OFFICE_PRIVATE_29 [J]
Zone,Meter,General:InteriorLights:Electricity:Zone:OFFICE_PRIVATE_29 [J]
Zone,Meter,Electricity:Zone:STORAGE_29 [J]
Zone,Meter,InteriorLights:Electricity:Zone:STORAGE_29 [J]
Zone,Meter,General:InteriorLights:Electricity:Zone:STORAGE_29 [J]
Zone,Meter,Electricity:Zone:CONFERENCE_30 [J]
Zone,Meter,InteriorLights:Electricity:Zone:CONFERENCE_30 [J]
Zone,Meter,General:InteriorLights:Electricity:Zone:CONFERENCE_30 [J]
Zone,Meter,Electricity:Zone:OFFICE_PRIVATE_30 [J]
Zone,Meter,InteriorLights:Electricity:Zone:OFFICE_PRIVATE_30 [J]
Zone,Meter,General:InteriorLights:Electricity:Zone:OFFICE_PRIVATE_30 [J]
Zone,Meter,Electricity:Zone:STORAGE_30 [J]
Zone,Meter,InteriorLights:Electricity:Zone:STORAGE_30 [J]
Zone,Meter,General:InteriorLights:Electricity:Zone:STORAGE_30 [J]
Zone,Meter,Electricity:Zone:CONFERENCE_31 [J]
Zone,Meter,InteriorLights:Electricity:Zone:CONFERENCE_31 [J]
Zone,Meter,General:InteriorLights:Electricity:Zone:CONFERENCE_31 [J]
Zone,Meter,Electricity:Zone:OFFICE_OPEN_31 [J]
Zone,Meter,InteriorLights:Electricity:Zone:OFFICE_OPEN_31 [J]
Zone,Meter,General:InteriorLights:Electricity:Zone:OFFICE_OPEN_31 [J]
Zone,Meter,Electricity:Zone:STORAGE_31 [J]
Zone,Meter,InteriorLights:Electricity:Zone:STORAGE_31 [J]
Zone,Meter,General:InteriorLights:Electricity:Zone:STORAGE_31 [J]
Zone,Meter,Electricity:Zone:LOBBY_32 [J]
Zone,Meter,InteriorLights:Electricity:Zone:LOBBY_32 [J]
Zone,Meter,General:InteriorLights:Electricity:Zone:LOBBY_32 [J]
Zone,Meter,Electricity:Zone:BREAK_ROOM_32 [J]
Zone,Meter,InteriorLights:Electricity:Zone:BREAK_ROOM_32 [J]
Zone,Meter,General:InteriorLights:Electricity:Zone:BREAK_ROOM_32 [J]
Zone,Meter,Electricity:Zone:MECHANICAL_32 [J]
Zone,Meter,InteriorLights:Electricity:Zone:MECHANICAL_32 [J]
Zone,Meter,General:InteriorLights:Electricity:Zone:MECHANICAL_32 [J]
Zone,Meter,Electricity:Zone:OFFICE_PRIVATE_32 [J]
Zone,Meter,InteriorLights:Electricity:Zone:OFFICE_PRIVATE_32 [J]
Zone,Meter,General:InteriorLights:Electricity:Zone:OFFICE_PRIVATE_32 [J]
Zone,Meter,Electricity:Zone:STORAGE_32 [J]
Zone,Meter,InteriorLights:Electricity:Zone:STORAGE_32 [J]
Zone,Meter,General:InteriorLights:Electricity:Zone:STORAGE_32 [J]
Zone,Meter,Electricity:Zone:CONFERENCE_33 [J]
Zone,Meter,InteriorLights:Electricity:Zone:CONFERENCE_33 [J]
Zone,Meter,General:InteriorLights:Electricity:Zone:CONFERENCE_33 [J]
Zone,Meter,Electricity:Zone:BREAK_ROOM_33 [J]
Zone,Meter,InteriorLights:Electricity:Zone:BREAK_ROOM_33 [J]
Zone,Meter,General:InteriorLights:Electricity:Zone:BREAK_ROOM_33 [J]
Zone,Meter,Electricity:Zone:OFFICE_PRIVATE_33 [J]
Zone,Meter,InteriorLights:Electricity:Zone:OFFICE_PRIVATE_33 [J]
Zone,Meter,General:InteriorLights:Electricity:Zone:OFFICE_PRIVATE_33 [J]
Zone,Meter,Electricity:Zone:STORAGE_33 [J]
Zone,Meter,InteriorLights:Electricity:Zone:STORAGE_33 [J]
Zone,Meter,General:InteriorLights:Electricity:Zone:STORAGE_33 [J]
Zone,Meter,Electricity:Zone:CONFERENCE_34 [J]
Zone,Meter,InteriorLights:Electricity:Zone:CONFERENCE_34 [J]
Zone,Meter,General:InteriorLights:Electricity:Zone:CONFERENCE_34 [J]
Zone,Meter,Electricity:Zone:BREAK_ROOM_34 [J]
Zone,Meter,InteriorLights:Electricity:Zone:BREAK_ROOM_34 [J]
Zone,Meter,General:InteriorLights:Electricity:Zone:BREAK_ROOM_34 [J]
Zone,Meter,Electricity:Zone:MECHANICAL_34 [J]
Zone,Meter,InteriorLights:Electricity:Zone:MECHANICAL_34 [J]
Zone,Meter,General:InteriorLights:Electricity:Zone:MECHANICAL_34 [J]
Zone,Meter,Electricity:Zone:OFFICE_PRIVATE_34 [J]
Zone,Meter,InteriorLights:Electricity:Zone:OFFICE_PRIVATE_34 [J]
Zone,Meter,General:InteriorLights:Electricity:Zone:OFFICE_PRIVATE_34 [J]
Zone,Meter,Electricity:Zone:STORAGE_34 [J]
Zone,Meter,InteriorLights:Electricity:Zone:STORAGE_34 [J]
Zone,Meter,General:InteriorLights:Electricity:Zone:STORAGE_34 [J]
Zone,Meter,Electricity:Zone:LOBBY_35 [J]
Zone,Meter,InteriorLights:Electricity:Zone:LOBBY_35 [J]
Zone,Meter,General:InteriorLights:Electricity:Zone:LOBBY_35 [J]
Zone,Meter,Electricity:Zone:CONFERENCE_35 [J]
Zone,Meter,InteriorLights:Electricity:Zone:CONFERENCE_35 [J]
Zone,Meter,General:InteriorLights:Electricity:Zone:CONFERENCE_35 [J]
Zone,Meter,Electricity:Zone:BREAK_ROOM_35 [J]
Zone,Meter,InteriorLights:Electricity:Zone:BREAK_ROOM_35 [J]
Zone,Meter,General:InteriorLights:Electricity:Zone:BREAK_ROOM_35 [J]
Zone,Meter,Electricity:Zone:MECHANICAL_35 [J]
Zone,Meter,InteriorLights:Electricity:Zone:MECHANICAL_35 [J]
Zone,Meter,General:InteriorLights:Electricity:Zone:MECHANICAL_35 [J]
Zone,Meter,Electricity:Zone:OFFICE_OPEN_35 [J]
Zone,Meter,InteriorLights:Electricity:Zone:OFFICE_OPEN_35 [J]
Zone,Meter,General:InteriorLights:Electricity:Zone:OFFICE_OPEN_35 [J]
Zone,Meter,Electricity:Zone:OFFICE_PRIVATE_35 [J]
Zone,Meter,InteriorLights:Electricity:Zone:OFFICE_PRIVATE_35 [J]
Zone,Meter,General:InteriorLights:Electricity:Zone:OFFICE_PRIVATE_35 [J]
Zone,Meter,Electricity:Zone:STORAGE_35 [J]
Zone,Meter,InteriorLights:Electricity:Zone:STORAGE_35 [J]
Zone,Meter,General:InteriorLights:Electricity:Zone:STORAGE_35 [J]
Zone,Meter,Electricity:Zone:CONFERENCE_36 [J]
Zone,Meter,InteriorLights:Electricity:Zone:CONFERENCE_36 [J]
Zone,Meter,General:InteriorLights:Electricity:Zone:CONFERENCE_36 [J]
Zone,Meter,Electricity:Zone:MECHANICAL_36 [J]
Zone,Meter,InteriorLights:Electricity:Zone:MECHANICAL_36 [J]
Zone,Meter,General:InteriorLights:Electricity:Zone:MECHANICAL_36 [J]
Zone,Meter,Electricity:Zone:CONFERENCE_37 [J]
Zone,Meter,InteriorLights:Electricity:Zone:CONFERENCE_37 [J]
Zone,Meter,General:InteriorLights:Electricity:Zone:CONFERENCE_37 [J]
Zone,Meter,Electricity:Zone:MECHANICAL_37 [J]
Zone,Meter,InteriorLights:Electricity:Zone:MECHANICAL_37 [J]
Zone,Meter,General:InteriorLights:Electricity:Zone:MECHANICAL_37 [J]
Zone,Meter,Electricity:Zone:OFFICE_PRIVATE_37 [J]
Zone,Meter,InteriorLights:Electricity:Zone:OFFICE_PRIVATE_37 [J]
Zone,Meter,General:InteriorLights:Electricity:Zone:OFFICE_PRIVATE_37 [J]
Zone,Meter,Electricity:Zone:STORAGE_37 [J]
Zone,Meter,InteriorLights:Electricity:Zone:STORAGE_37 [J]
Zone,Meter,General:InteriorLights:Electricity:Zone:STORAGE_37 [J]
Zone,Meter,Electricity:Zone:BREAK_ROOM_38 [J]
Zone,Meter,InteriorLights:Electricity:Zone:BREAK_ROOM_38 [J]
Zone,Meter,General:InteriorLights:Electricity:Zone:BREAK_ROOM_38 [J]
Zone,Meter,Electricity:Zone:OFFICE_PRIVATE_38 [J]
Zone,Meter,InteriorLights:Electricity:Zone:OFFICE_PRIVATE_38 [J]
Zone,Meter,General:InteriorLights:Electricity:Zone:OFFICE_PRIVATE_38 [J]
Zone,Meter,Electricity:Zone:BREAK_ROOM_39 [J]
Zone,Meter,InteriorLights:Electricity:Zone:BREAK_ROOM_39 [J]
Zone,Meter,General:InteriorLights:Electricity:Zone:BREAK_ROOM_39 [J]
Zone,Meter,Electricity:Zone:MECHANICAL_39 [J]
Zone,Meter,InteriorLights:Electricity:Zone:MECHANICAL_39 [J]
Zone,Meter,General:InteriorLights:Electricity:Zone:MECHANICAL_39 [J]
Zone,Meter,Electricity:Zone:OFFICE_OPEN_39 [J]
Zone,Meter,InteriorLights:Electricity:Zone:OFFICE_OPEN_39 [J]
Zone,Meter,General:InteriorLights:Electricity:Zone:OFFICE_OPEN_39 [J]
Zone,Meter,Electricity:Zone:OFFICE_PRIVATE_39 [J]
Zone,Meter,InteriorLights:Electricity:Zone:OFFICE_PRIVATE_39 [J]
Zone,Meter,General:InteriorLights:Electricity:Zone:OFFICE_PRIVATE_39 [J]
Zone,Meter,Electricity:Zone:STORAGE_39 [J]
Zone,Meter,InteriorLights:Electricity:Zone:STORAGE_39 [J]
Zone,Meter,General:InteriorLights:Electricity:Zone:STORAGE_39 [J]
Zone,Meter,Electricity:Zone:LOBBY_40 [J]
Zone,Meter,InteriorLights:Electricity:Zone:LOBBY_40 [J]
Zone,Meter,General:InteriorLights:Electricity:Zone:LOBBY_40 [J]
Zone,Meter,Electricity:Zone:CONFERENCE_40 [J]
Zone,Meter,InteriorLights:Electricity:Zone:CONFERENCE_40 [J]
Zone,Meter,General:InteriorLights:Electricity:Zone:CONFERENCE_40 [J]
Zone,Meter,Electricity:Zone:BREAK_ROOM_40 [J]
Zone,Meter,InteriorLights:Electricity:Zone:BREAK_ROOM_40 [J]
Zone,Meter,General:InteriorLights:Electricity:Zone:BREAK_ROOM_40 [J]
Zone,Meter,Electricity:Zone:OFFICE_PRIVATE_40 [J]
Zone,Meter,InteriorLights:Electricity:Zone:OFFICE_PRIVATE_40 [J]
Zone,Meter,General:InteriorLights:Electricity:Zone:OFFICE_PRIVATE_40 [J]
Zone,Meter,Electricity:Zone:STORAGE_40 [J]
Zone,Meter,InteriorLights:Electricity:Zone:STORAGE_40 [J]
Zone,Meter,General:InteriorLights:Electricity:Zone:STORAGE_40 [J]
Zone,Meter,Electricity:Zone:MECHANICAL_41 [J]
Zone,Meter,InteriorLights:Electricity:Zone:MECHANICAL_41 [J]
Zone,Meter,General:InteriorLights:Electricity:Zone:MECHANICAL_41 [J]
Zone,Meter,Electricity:Zone:OFFICE_PRIVATE_41 [J]
Zone,Meter,InteriorLights:Electricity:Zone:OFFICE_PRIVATE_41 [J]
Zone,Meter,General:InteriorLights:Electricity:Zone:OFFICE_PRIVATE_41 [J]
Zone,Meter,Electricity:Zone:STORAGE_41 [J]
Zone,Meter,InteriorLights:Electricity:Zone:STORAGE_41 [J]
Zone,Meter,General:InteriorLights:Electricity:Zone:STORAGE_41 [J]
Zone,Meter,Electricity:Zone:CONFERENCE_42 [J]
Zone,Meter,InteriorLights:Electricity:Zone:CONFERENCE_42 [J]
Zone,Meter,General:InteriorLights:Electricity:Zone:CONFERENCE_42 [J]
Zone,Meter,Electricity:Zone:MECHANICAL_42 [J]
Zone,Meter,InteriorLights:Electricity:Zone:MECHANICAL_42 [J]
Zone,Meter,General:InteriorLights:Electricity:Zone:MECHANICAL_42 [J]
Zone,Meter,Electricity:Zone:OFFICE_OPEN_42 [J]
Zone,Meter,InteriorLights:Electricity:Zone:OFFICE_OPEN_42 [J]
Zone,Meter,General:InteriorLights:Electricity:Zone:OFFICE_OPEN_42 [J]
Zone,Meter,Electricity:Zone:OFFICE_PRIVATE_42 [J]
Zone,Meter,InteriorLights:Electricity:Zone:OFFICE_PRIVATE_42 [J]
Zone,Meter,General:InteriorLights:Electricity:Zone:OFFICE_PRIVATE_42 [J]
Zone,Meter,Electricity:Zone:STORAGE_42 [J]
Zone,Meter,InteriorLights:Electricity:Zone:STORAGE_42 [J]
Zone,Meter,General:InteriorLights:Electricity:Zone:STORAGE_42 [J]
Zone,Meter,Electricity:Zone:CONFERENCE_43 [J]
Zone,Meter,InteriorLights:Electricity:Zone:CONFERENCE_43 [J]
Zone,Meter,General:InteriorLights:Electricity:Zone:CONFERENCE_43 [J]
Zone,Meter,Electricity:Zone:OFFICE_OPEN_43 [J]
Zone,Meter,InteriorLights:Electricity:Zone:OFFICE_OPEN_43 [J]
Zone,Meter,General:InteriorLights:Electricity:Zone:OFFICE_OPEN_43 [J]
Zone,Meter,Electricity:Zone:OFFICE_PRIVATE_43 [J]
Zone,Meter,InteriorLights:Electricity:Zone:OFFICE_PRIVATE_43 [J]
Zone,Meter,General:InteriorLights:Electricity:Zone:OFFICE_PRIVATE_43 [J]
Zone,Meter,Electricity:Zone:STORAGE_43 [J]
Zone,Meter,InteriorLights:Electricity:Zone:STORAGE_43 [J]
Zone,Meter,General:InteriorLights:Electricity:Zone:STORAGE_43 [J]
Zone,Meter,Electricity:Zone:LOBBY_44 [J]
Zone,Meter,InteriorLights:Electricity:Zone:LOBBY_44 [J]
Zone,Meter,General:InteriorLights:Electricity:Zone:LOBBY_44 [J]
Zone,Meter,Electricity:Zone:OFFICE_PRIVATE_44 [J]
Zone,Meter,InteriorLights:Electricity:Zone:OFFICE_PRIVATE_44 [J]
Zone,Meter,General:InteriorLights:Electricity:Zone:OFFICE_PRIVATE_44 [J]
Zone,Meter,Electricity:Zone:STORAGE_44 [J]
Zone,Meter,InteriorLights:Electricity:Zone:STORAGE_44 [J]
Zone,Meter,General:InteriorLights:Electricity:Zone:STORAGE_44 [J]
Zone,Meter,Electricity:Zone:LOBBY_45 [J]
Zone,Meter,InteriorLights:Electricity:Zone:LOBBY_45 [J]
Zone,Meter,General:InteriorLights:Electricity:Zone:LOBBY_45 [J]
Zone,Meter,Electricity:Zone:CONFERENCE_45 [J]
Zone,Meter,InteriorLights:Electricity:Zone:CONFERENCE_45 [J]
Zone,Meter,General:InteriorLights:Electricity:Zone:CONFERENCE_45 [J]
Zone,Meter,Electricity:Zone:BREAK_ROOM_45 [J]
Zone,Meter,InteriorLights:Electricity:Zone:BREAK_ROOM_45 [J]
Zone,Meter,General:InteriorLights:Electricity:Zone:BREAK_ROOM_45 [J]
Zone,Meter,Electricity:Zone:MECHANICAL_45 [J]
Zone,Meter,InteriorLights:Electricity:Zone:MECHANICAL_45 [J]
Zone,Meter,General:InteriorLights:Electricity:Zone:MECHANICAL_45 [J]
Zone,Meter,Electricity:Zone:STORAGE_45 [J]
Zone,Meter,InteriorLights:Electricity:Zone:STORAGE_45 [J]
Zone,Meter,General:InteriorLights:Electricity:Zone:STORAGE_45 [J]
Zone,Meter,Electricity:Zone:BREAK_ROOM_46 [J]
Zone,Meter,InteriorLights:Electricity:Zone:BREAK_ROOM_46 [J]
Zone,Meter,General:InteriorLights:Electricity:Zone:BREAK_ROOM_46 [J]
Zone,Meter,Electricity:Zone:OFFICE_OPEN_46 [J]
Zone,Meter,InteriorLights:Electricity:Zone:OFFICE_OPEN_46 [J]
Zone,Meter,General:InteriorLights:Electricity:Zone:OFFICE_OPEN_46 [J]
Zone,Meter,Electricity:Zone:STORAGE_46 [J]
Zone,Meter,InteriorLights:Electricity:Zone:STORAGE_46 [J]
Zone,Meter,General:InteriorLights:Electricity:Zone:STORAGE_46 [J]
Zone,Meter,Electricity:Zone:LOBBY_47 [J]
Zone,Meter,InteriorLights:Electricity:Zone:LOBBY_47 [J]
Zone,Meter,General:InteriorLights:Electricity:Zone:LOBBY_47 [J]
Zone,Meter,Electricity:Zone:CONFERENCE_47 [J]
Zone,Meter,InteriorLights:Electricity:Zone:CONFERENCE_47 [J]
Zone,Meter,General:InteriorLights:Electricity:Zone:CONFERENCE_47 [J]
Zone,Meter,Electricity:Zone:BREAK_ROOM_47 [J]
Zone,Meter,InteriorLights:Electricity:Zone:BREAK_ROOM_47 [J]
Zone,Meter,General:InteriorLights:Electricity:Zone:BREAK_ROOM_47 [J]
Zone,Meter,Electricity:Zone:MECHANICAL_47 [J]
Zone,Meter,InteriorLights:Electricity:Zone:MECHANICAL_47 [J]
Zone,Meter,General:InteriorLights:Electricity:Zone:MECHANICAL_47 [J]
Zone,Meter,Electricity:Zone:OFFICE_PRIVATE_47 [J]
Zone,Meter,InteriorLights:Electricity:Zone:OFFICE_PRIVATE_47 [J]
Zone,Meter,General:InteriorLights:Electricity:Zone:OFFICE_PRIVATE_47 [J]
Zone,Meter,Electricity:Zone:STORAGE_47 [J]
Zone,Meter,InteriorLights:Electricity:Zone:STORAGE_47 [J]
Zone,Meter,General:InteriorLights:Electricity:Zone:STORAGE_47 [J]
Zone,Meter,Electricity:Zone:LOBBY_48 [J]
Zone,Meter,InteriorLights:Electricity:Zone:LOBBY_48 [J]
Zone,Meter,General:InteriorLights:Electricity:Zone:LOBBY_48 [J]
Zone,Meter,Electricity:Zone:CONFERENCE_48 [J]
Zone,Meter,InteriorLights:Electricity:Zone:CONFERENCE_48 [J]
Zone,Meter,General:InteriorLights:Electricity:Zone:CONFERENCE_48 [J]
Zone,Meter,Electricity:Zone:BREAK_ROOM_48 [J]
Zone,Meter,InteriorLights:Electricity:Zone:BREAK_ROOM_48 [J]
Zone,Meter,General:InteriorLights:Electricity:Zone:BREAK_ROOM_48 [J]
Zone,Meter,Electricity:Zone:MECHANICAL_48 [J]
Zone,Meter,InteriorLights:Electricity:Zone:MECHANICAL_48 [J]
Zone,Meter,General:InteriorLights:Electricity:Zone:MECHANICAL_48 [J]
Zone,Meter,Electricity:Zone:OFFICE_OPEN_48 [J]
Zone,Meter,InteriorLights:Electricity:Zone:OFFICE_OPEN_48 [J]
Zone,Meter,General:InteriorLights:Electricity:Zone:OFFICE_OPEN_48 [J]
Zone,Meter,Electricity:Zone:STORAGE_48 [J]
Zone,Meter,InteriorLights:Electricity:Zone:STORAGE_48 [J]
Zone,Meter,General:InteriorLights:Electricity:Zone:STORAGE_48 [J]
Zone,Meter,Electricity:Zone:LOBBY_49 [J]
Zone,Meter,InteriorLights:Electricity:Zone:LOBBY_49 [J]
Zone,Meter,General:InteriorLights:Electricity:Zone:LOBBY_49 [J]
Zone,Meter,Electricity:Zone:CONFERENCE_49 [J]
Zone,Meter,InteriorLights:Electricity:Zone:CONFERENCE_49 [J]
Zone,Meter,General:InteriorLights:Electricity:Zone:CONFERENCE_49 [J]
Zone,Meter,Electricity:Zone:BREAK_ROOM_49 [J]
Zone,Meter,InteriorLights:Electricity:Zone:BREAK_ROOM_49 [J]
Zone,Meter,General:InteriorLights:Electricity:Zone:BREAK_ROOM_49 [J]
Zone,Meter,Electricity:Zone:MECHANICAL_49 [J]
Zone,Meter,InteriorLights:Electricity:Zone:MECHANICAL_49 [J]
Zone,Meter,General:InteriorLights:Electricity:Zone:MECHANICAL_49 [J]
Zone,Meter,Electricity:Zone:OFFICE_OPEN_49 [J]
Zone,Meter,InteriorLights:Electricity:Zone:OFFICE_OPEN_49 [J]
Zone,Meter,General:InteriorLights:Electricity:Zone:OFFICE_OPEN_49 [J]
Zone,Meter,Electricity:Zone:OFFICE_PRIVATE_49 [J]
Zone,Meter,InteriorLights:Electricity:Zone:OFFICE_PRIVATE_49 [J]
Zone,Meter,General:InteriorLights:Electricity:Zone:OFFICE_PRIVATE_49 [J]
Zone,Meter,Electricity:Zone:STORAGE_49 [J]
Zone,Meter,InteriorLights:Electricity:Zone:STORAGE_49 [J]
Zone,Meter,General:InteriorLights:Electricity:Zone:STORAGE_49 [J]
Zone,Meter,Electricity:Zone:LOBBY_50 [J]
Zone,Meter,InteriorLights:Electricity:Zone:LOBBY_50 [J]
Zone,Meter,General:InteriorLights:Electricity:Zone:LOBBY_50 [J]
Zone,Meter,Electricity:Zone:BREAK_ROOM_50 [J]
Zone,Meter,InteriorLights:Electricity:Zone:BREAK_ROOM_50 [J]
Zone,Meter,General:InteriorLights:Electricity:Zone:BREAK_ROOM_50 [J]
Zone,Meter,Electricity:Zone:MECHANICAL_50 [J]
Zone,Meter,InteriorLights:Electricity:Zone:MECHANICAL_50 [J]
Zone,Meter,General:InteriorLights:Electricity:Zone:MECHANICAL_50 [J]
Zone,Meter,Electricity:Zone:OFFICE_OPEN_50 [J]
Zone,Meter,InteriorLights:Electricity:Zone:OFFICE_OPEN_50 [J]
Zone,Meter,General:InteriorLights:Electricity:Zone:OFFICE_OPEN_50 [J]
Zone,Meter,Electricity:Zone:OFFICE_PRIVATE_50 [J]
Zone,Meter,InteriorLights:Electricity:Zone:OFFICE_PRIVATE_50 [J]
Zone,Meter,General:InteriorLights:Electricity:Zone:OFFICE_PRIVATE_50 [J]
Zone,Meter,Electricity:Zone:LOBBY_51 [J]
Zone,Meter,InteriorLights:Electricity:Zone:LOBBY_51 [J]
Zone,Meter,General:InteriorLights:Electricity:Zone:LOBBY_51 [J]
Zone,Meter,Electricity:Zone:CONFERENCE_51 [J]
Zone,Meter,InteriorLights:Electricity:Zone:CONFERENCE_51 [J]
Zone,Meter,General:InteriorLights:Electricity:Zone:CONFERENCE_51 [J]
Zone,Meter,Electricity:Zone:BREAK_ROOM_51 [J]
Zone,Meter,InteriorLights:Electricity:Zone:BREAK_ROOM_51 [J]
Zone,Meter,General:InteriorLights:Electricity:Zone:BREAK_ROOM_51 [J]
Zone,Meter,Electricity:Zone:MECHANICAL_51 [J]
Zone,Meter,InteriorLights:Electricity:Zone:MECHANICAL_51 [J]
Zone,Meter,General:InteriorLights:Electricity:Zone:MECHANICAL_51 [J]
Zone,Meter,Electricity:Zone:OFFICE_PRIVATE_51 [J]
Zone,Meter,InteriorLights:Electricity:Zone:OFFICE_PRIVATE_51 [J]
Zone,Meter,General:InteriorLights:Electricity:Zone:OFFICE_PRIVATE_51 [J]
Zone,Meter,Electricity:Zone:STORAGE_51 [J]
Zone,Meter,InteriorLights:Electricity:Zone:STORAGE_51 [J]
Zone,Meter,General:InteriorLights:Electricity:Zone:STORAGE_51 [J]
Zone,Meter,Electricity:Zone:LOBBY_52 [J]
Zone,Meter,InteriorLights:Electricity:Zone:LOBBY_52 [J]
Zone,Meter,General:InteriorLights:Electricity:Zone:LOBBY_52 [J]
Zone,Meter,Electricity:Zone:CONFERENCE_52 [J]
Zone,Meter,InteriorLights:Electricity:Zone:CONFERENCE_52 [J]
Zone,Meter,General:InteriorLights:Electricity:Zone:CONFERENCE_52 [J]
Zone,Meter,Electricity:Zone:MECHANICAL_52 [J]
Zone,Meter,InteriorLights:Electricity:Zone:MECHANICAL_52 [J]
Zone,Meter,General:InteriorLights:Electricity:Zone:MECHANICAL_52 [J]
Zone,Meter,Electricity:Zone:OFFICE_OPEN_52 [J]
Zone,Meter,InteriorLights:Electricity:Zone:OFFICE_OPEN_52 [J]
Zone,Meter,General:InteriorLights:Electricity:Zone:OFFICE_OPEN_52 [J]
Zone,Meter,Electricity:Zone:OFFICE_PRIVATE_52 [J]
Zone,Meter,InteriorLights:Electricity:Zone:OFFICE_PRIVATE_52 [J]
Zone,Meter,General:InteriorLights:Electricity:Zone:OFFICE_PRIVATE_52 [J]
Zone,Meter,Electricity:Zone:STORAGE_52 [J]
Zone,Meter,InteriorLights:Electricity:Zone:STORAGE_52 [J]
Zone,Meter,General:InteriorLights:Electricity:Zone:STORAGE_52 [J]
Zone,Meter,Electricity:Zone:CONFERENCE_53 [J]
Zone,Meter,InteriorLights:Electricity:Zone:CONFERENCE_53 [J]
Zone,Meter,General:InteriorLights:Electricity:Zone:CONFERENCE_53 [J]
Zone,Meter,Electricity:Zone:MECHANICAL_53 [J]
Zone,Meter,InteriorLights:Electricity:Zone:MECHANICAL_53 [J]
Zone,Meter,General:InteriorLights:Electricity:Zone:MECHANICAL_53 [J]
Zone,Meter,Electricity:Zone:OFFICE_OPEN_53 [J]
Zone,Meter,InteriorLights:Electricity:Zone:OFFICE_OPEN_53 [J]
Zone,Meter,General:InteriorLights:Electricity:Zone:OFFICE_OPEN_53 [J]
Zone,Meter,Electricity:Zone:STORAGE_53 [J]
Zone,Meter,InteriorLights:Electricity:Zone:STORAGE_53 [J]
Zone,Meter,General:InteriorLights:Electricity:Zone:STORAGE_53 [J]
Zone,Meter,Electricity:Zone:CONFERENCE_54 [J]
Zone,Meter,InteriorLights:Electricity:Zone:CONFERENCE_54 [J]
Zone,Meter,General:InteriorLights:Electricity:Zone:CONFERENCE_54 [J]
Zone,Meter,Electricity:Zone:BREAK_ROOM_54 [J]
Zone,Meter,InteriorLights:Electricity:Zone:BREAK_ROOM_54 [J]
Zone,Meter,General:InteriorLights:Electricity:Zone:BREAK_ROOM_54 [J]
Zone,Meter,Electricity:Zone:MECHANICAL_54 [J]
Zone,Meter,InteriorLights:Electricity:Zone:MECHANICAL_54 [J]
Zone,Meter,General:InteriorLights:Electricity:Zone:MECHANICAL_54 [J]
Zone,Meter,Electricity:Zone:OFFICE_PRIVATE_54 [J]
Zone,Meter,InteriorLights:Electricity:Zone:OFFICE_PRIVATE_54 [J]
Zone,Meter,General:InteriorLights:Electricity:Zone:OFFICE_PRIVATE_54 [J]
Zone,Meter,Electricity:Zone:STORAGE_54 [J]
Zone,Meter,InteriorLights:Electricity:Zone:STORAGE_54 [J]
Zone,Meter,General:InteriorLights:Electricity:Zone:STORAGE_54 [J]
Zone,Meter,Electricity:Zone:LOBBY_55 [J]
Zone,Meter,InteriorLights:Electricity:Zone:LOBBY_55 [J]
Zone,Meter,General:InteriorLights:Electricity:Zone:LOBBY_55 [J]
Zone,Meter,Electricity:Zone:BREAK_ROOM_55 [J]
Zone,Meter,InteriorLights:Electricity:Zone:BREAK_ROOM_55 [J]
Zone,Meter,General:InteriorLights:Electricity:Zone:BREAK_ROOM_55 [J]
Zone,Meter,Electricity:Zone:MECHANICAL_55 [J]
Zone,Meter,InteriorLights:Electricity:Zone:MECHANICAL_55 [J]
Zone,Meter,General:InteriorLights:Electricity:Zone:MECHANICAL_55 [J]
Zone,Meter,Electricity:Zone:OFFICE_PRIVATE_55 [J]
Zone,Meter,InteriorLights:Electricity:Zone:OFFICE_PRIVATE_55 [J]
Zone,Meter,General:InteriorLights:Electricity:Zone:OFFICE_PRIVATE_55 [J]
Zone,Meter,Electricity:Zone:STORAGE_55 [J]
Zone,Meter,InteriorLights:Electricity:Zone:STORAGE_55 [J]
Zone,Meter,General:InteriorLights:Electricity:Zone:STORAGE_55 [J]
Zone,Meter,Electricity:Zone:LOBBY_56 [J]
Zone,Meter,InteriorLights:Electricity:Zone:LOBBY_56 [J]
Zone,Meter,General:InteriorLights:Electricity:Zone:LOBBY_56 [J]
Zone,Meter,Electricity:Zone:CONFERENCE_56 [J]
Zone,Meter,InteriorLights:Electricity:Zone:CONFERENCE_56 [J]
Zone,Meter,General:InteriorLights:Electricity:Zone:CONFERENCE_56 [J]
Zone,Meter,Electricity:Zone:BREAK_ROOM_56 [J]
Zone,Meter,InteriorLights:Electricity:Zone:BREAK_ROOM_56 [J]
Zone,Meter,General:InteriorLights:Electricity:Zone:BREAK_ROOM_56 [J]
Zone,Meter,Electricity:Zone:MECHANICAL_56 [J]
Zone,Meter,InteriorLights:Electricity:Zone:MECHANICAL_56 [J]
Zone,Meter,General:InteriorLights:Electricity:Zone:MECHANICAL_56 [J]
Zone,Meter,Electricity:Zone:OFFICE_OPEN_56 [J]
Zone,Meter,InteriorLights:Electricity:Zone:OFFICE_OPEN_56 [J]
Zone,Meter,General:InteriorLights:Electricity:Zone:OFFICE_OPEN_56 [J]
Zone,Meter,Electricity:Zone:OFFICE_PRIVATE_56 [J]
Zone,Meter,InteriorLights:Electricity:Zone:OFFICE_PRIVATE_56 [J]
Zone,Meter,General:InteriorLights:Electricity:Zone:OFFICE_PRIVATE_56 [J]
Zone,Meter,Electricity:Zone:STORAGE_56 [J]
Zone,Meter,InteriorLights:Electricity:Zone:STORAGE_56 [J]
Zone,Meter,General:InteriorLights:Electricity:Zone:STORAGE_56 [J]
Zone,Meter,Electricity:Zone:CONFERENCE_57 [J]
Zone,Meter,InteriorLights:Electricity:Zone:CONFERENCE_57 [J]
Zone,Meter,General:InteriorLights:Electricity:Zone:CONFERENCE_57 [J]
Zone,Meter,Electricity:Zone:BREAK_ROOM_57 [J]
Zone,Meter,InteriorLights:Electricity:Zone:BREAK_ROOM_57 [J]
Zone,Meter,General:InteriorLights:Electricity:Zone:BREAK_ROOM_57 [J]
Zone,Meter,Electricity:Zone:MECHANICAL_57 [J]
Zone,Meter,InteriorLights:Electricity:Zone:MECHANICAL_57 [J]
Zone,Meter,General:InteriorLights:Electricity:Zone:MECHANICAL_57 [J]
Zone,Meter,Electricity:Zone:OFFICE_OPEN_57 [J]
Zone,Meter,InteriorLights:Electricity:Zone:OFFICE_OPEN_57 [J]
Zone,Meter,General:InteriorLights:Electricity:Zone:OFFICE_OPEN_57 [J]
Zone,Meter,Electricity:Zone:OFFICE_PRIVATE_57 [J]
Zone,Meter,InteriorLights:Electricity:Zone:OFFICE_PRIVATE_57 [J]
Zone,Meter,General:InteriorLights:Electricity:Zone:OFFICE_PRIVATE_57 [J]
Zone,Meter,Electricity:Zone:STORAGE_57 [J]
Zone,Meter,InteriorLights:Electricity:Zone:STORAGE_57 [J]
Zone,Meter,General:InteriorLights:Electricity:Zone:STORAGE_57 [J]
Zone,Meter,Electricity:Zone:CONFERENCE_58 [J]
Zone,Meter,InteriorLights:Electricity:Zone:CONFERENCE_58 [J]
Zone,Meter,General:InteriorLights:Electricity:Zone:CONFERENCE_58 [J]
Zone,Meter,Electricity:Zone:BREAK_ROOM_58 [J]
Zone,Meter,InteriorLights:Electricity:Zone:BREAK_ROOM_58 [J]
Zone,Meter,General:InteriorLights:Electricity:Zone:BREAK_ROOM_58 [J]
Zone,Meter,Electricity:Zone:MECHANICAL_58 [J]
Zone,Meter,InteriorLights:Electricity:Zone:MECHANICAL_58 [J]
Zone,Meter,General:InteriorLights:Electricity:Zone:MECHANICAL_58 [J]
Zone,Meter,Electricity:Zone:OFFICE_PRIVATE_58 [J]
Zone,Meter,InteriorLights:Electricity:Zone:OFFICE_PRIVATE_58 [J]
Zone,Meter,General:InteriorLights:Electricity:Zone:OFFICE_PRIVATE_58 [J]
Zone,Meter,Electricity:Zone:STORAGE_58 [J]
Zone,Meter,InteriorLights:Electricity:Zone:STORAGE_58 [J]
Zone,Meter,General:InteriorLights:Electricity:Zone:STORAGE_58 [J]
Zone,Meter,Electricity:Zone:LOBBY_59 [J]
Zone,Meter,InteriorLights:Electricity:Zone:LOBBY_59 [J]
Zone,Meter,General:InteriorLights:Electricity:Zone:LOBBY_59 [J]
Zone,Meter,Electricity:Zone:CONFERENCE_59 [J]
Zone,Meter,InteriorLights:Electricity:Zone:CONFERENCE_59 [J]
Zone,Meter,General:InteriorLights:Electricity:Zone:CONFERENCE_59 [J]
Zone,Meter,Electricity:Zone:MECHANICAL_59 [J]
Zone,Meter,InteriorLights:Electricity:Zone:MECHANICAL_59 [J]
Zone,Meter,General:InteriorLights:Electricity:Zone:MECHANICAL_59 [J]
Zone,Meter,Electricity:Zone:OFFICE_OPEN_59 [J]
Zone,Meter,InteriorLights:Electricity:Zone:OFFICE_OPEN_59 [J]
Zone,Meter,General:InteriorLights:Electricity:Zone:OFFICE_OPEN_59 [J]
Zone,Meter,Electricity:Zone:OFFICE_PRIVATE_59 [J]
Zone,Meter,InteriorLights:Electricity:Zone:OFFICE_PRIVATE_59 [J]
Zone,Meter,General:InteriorLights:Electricity:Zone:OFFICE_PRIVATE_59 [J]
Zone,Meter,Electricity:Zone:STORAGE_59 [J]
Zone,Meter,InteriorLights:Electricity:Zone:STORAGE_59 [J]
Zone,Meter,General:InteriorLights:Electricity:Zone:STORAGE_59 [J]
Zone,Meter,Electricity:Zone:CONFERENCE_60 [J]
Zone,Meter,InteriorLights:Electricity:Zone:CONFERENCE_60 [J]
Zone,Meter,General:InteriorLights:Electricity:Zone:CONFERENCE_60 [J]
Zone,Meter,Electricity:Zone:BREAK_ROOM_60 [J]
Zone,Meter,InteriorLights:Electricity:Zone:BREAK_ROOM_60 [J]
Zone,Meter,General:InteriorLights:Electricity:Zone:BREAK_ROOM_60 [J]
Zone,Meter,Electricity:Zone:MECHANICAL_60 [J]
Zone,Meter,InteriorLights:Electricity:Zone:MECHANICAL_60 [J]
Zone,Meter,General:InteriorLights:Electricity:Zone:MECHANICAL_60 [J]
Zone,Meter,Electricity:Zone:OFFICE_PRIVATE_60 [J]
Zone,Meter,InteriorLights:Electricity:Zone:OFFICE_PRIVATE_60 [J]
Zone,Meter,General:InteriorLights:Electricity:Zone:OFFICE_PRIVATE_60 [J]
Zone,Meter,Electricity:Zone:LOBBY_61 [J]
Zone,Meter,InteriorLights:Electricity:Zone:LOBBY_61 [J]
Zone,Meter,General:InteriorLights:Electricity:Zone:LOBBY_61 [J]
Zone,Meter,Electricity:Zone:CONFERENCE_61 [J]
Zone,Meter,InteriorLights:Electricity:Zone:CONFERENCE_61 [J]
Zone,Meter,General:InteriorLights:Electricity:Zone:CONFERENCE_61 [J]
Zone,Meter,Electricity:Zone:BREAK_ROOM_61 [J]
Zone,Meter,InteriorLights:Electricity:Zone:BREAK_ROOM_61 [J]
Zone,Meter,General:InteriorLights:Electricity:Zone:BREAK_ROOM_61 [J]
Zone,Meter,Electricity:Zone:MECHANICAL_61 [J]
Zone,Meter,InteriorLights:Electricity:Zone:MECHANICAL_61 [J]
Zone,Meter,General:InteriorLights:Electricity:Zone:MECHANICAL_61 [J]
Zone,Meter,Electricity:Zone:STORAGE_61 [J]
Zone,Meter,InteriorLights:Electricity:Zone:STORAGE_61 [J]
Zone,Meter,General:InteriorLights:Electricity:Zone:STORAGE_61 [J]
Zone,Meter,Electricity:Zone:LOBBY_62 [J]
Zone,Meter,InteriorLights:Electricity:Zone:LOBBY_62 [J]
Zone,Meter,General:InteriorLights:Electricity:Zone:LOBBY_62 [J]
Zone,Meter,Electricity:Zone:CONFERENCE_62 [J]
Zone,Meter,InteriorLights:Electricity:Zone:CONFERENCE_62 [J]
Zone,Meter,General:InteriorLights:Electricity:Zone:CONFERENCE_62 [J]
Zone,Meter,Electricity:Zone:BREAK_ROOM_62 [J]
Zone,Meter,InteriorLights:Electricity:Zone:BREAK_ROOM_62 [J]
Zone,Meter,General:InteriorLights:Electricity:Zone:BREAK_ROOM_62 [J]
Zone,Meter,Electricity:Zone:MECHANICAL_62 [J]
Zone,Meter,InteriorLights:Electricity:Zone:MECHANICAL_62 [J]
Zone,Meter,General:InteriorLights:Electricity:Zone:MECHANICAL_62 [J]
Zone,Meter,Electricity:Zone:OFFICE_PRIVATE_62 [J]
Zone,Meter,InteriorLights:Electricity:Zone:OFFICE_PRIVATE_62 [J]
Zone,Meter,General:InteriorLights:Electricity:Zone:OFFICE_PRIVATE_62 [J]
Zone,Meter,Electricity:Zone:STORAGE_62 [J]
Zone,Meter,InteriorLights:Electricity:Zone:STORAGE_62 [J]
Zone,Meter,General:InteriorLights:Electricity:Zone:STORAGE_62 [J]
Zone,Meter,Electricity:Zone:LOBBY_63 [J]
Zone,Meter,InteriorLights:Electricity:Zone:LOBBY_63 [J]
Zone,Meter,General:InteriorLights:Electricity:Zone:LOBBY_63 [J]
Zone,Meter,Electricity:Zone:CONFERENCE_63 [J]
Zone,Meter,InteriorLights:Electricity:Zone:CONFERENCE_63 [J]
Zone,Meter,General:InteriorLights:Electricity:Zone:CONFERENCE_63 [J]
Zone,Meter,Electricity:Zone:MECHANICAL_63 [J]
Zone,Meter,InteriorLights:Electricity:Zone:MECHANICAL_63 [J]
Zone,Meter,General:InteriorLights:Electricity:Zone:MECHANICAL_63 [J]
Zone,Meter,Electricity:Zone:OFFICE_PRIVATE_63 [J]
Zone,Meter,InteriorLights:Electricity:Zone:OFFICE_PRIVATE_63 [J]
Zone,Meter,General:InteriorLights:Electricity:Zone:OFFICE_PRIVATE_63 [J]
Zone,Meter,Electricity:Zone:STORAGE_63 [J]
Zone,Meter,InteriorLights:Electricity:Zone:STORAGE_63 [J]
Zone,Meter,General:InteriorLights:Electricity:Zone:STORAGE_63 [J]
Zone,Meter,Electricity:Zone:LOBBY_64 [J]
Zone,Meter,InteriorLights:Electricity:Zone:LOBBY_64 [J]
Zone,Meter,General:InteriorLights:Electricity:Zone:LOBBY_64 [J]
Zone,Meter,Electricity:Zone:CONFERENCE_64 [J]
Zone,Meter,InteriorLights:Electricity:Zone:CONFERENCE_64 [J]
Zone,Meter,General:InteriorLights:Electricity:Zone:CONFERENCE_64 [J]
Zone,Meter,Electricity:Zone:MECHANICAL_64 [J]
Zone,Meter,InteriorLights:Electricity:Zone:MECHANICAL_64 [J]
Zone,Meter,General:InteriorLights:Electricity:Zone:MECHANICAL_64 [J]
Zone,Meter,Electricity:Zone:OFFICE_PRIVATE_64 [J]
Zone,Meter,InteriorLights:Electricity:Zone:OFFICE_PRIVATE_64 [J]
Zone,Meter,General:InteriorLights:Electricity:Zone:OFFICE_PRIVATE_64 [J]
Zone,Meter,Electricity:Zone:STORAGE_64 [J]
Zone,Meter,InteriorLights:Electricity:Zone:STORAGE_64 [J]
Zone,Meter,General:InteriorLights:Electricity:Zone:STORAGE_64 [J]
Zone,Meter,Electricity:Zone:LOBBY_65 [J]
Zone,Meter,InteriorLights:Electricity:Zone:LOBBY_65 [J]
Zone,Meter,General:InteriorLights:Electricity:Zone:LOBBY_65 [J]
Zone,Meter,Electricity:Zone:BREAK_ROOM_65 [J]
Zone,Meter,InteriorLights:Electricity:Zone:BREAK_ROOM_65 [J]
Zone,Meter,General:InteriorLights:Electricity:Zone:BREAK_ROOM_65 [J]
Zone,Meter,Electricity:Zone:MECHANICAL_65 [J]
Zone,Meter,InteriorLights:Electricity:Zone:MECHANICAL_65 [J]
Zone,Meter,General:InteriorLights:Electricity:Zone:MECHANICAL_65 [J]
Zone,Meter,Electricity:Zone:OFFICE_OPEN_65 [J]
Zone,Meter,InteriorLights:Electricity:Zone:OFFICE_OPEN_65 [J]
Zone,Meter,General:InteriorLights:Electricity:Zone:OFFICE_OPEN_65 [J]
Zone,Meter,Electricity:Zone:OFFICE_PRIVATE_65 [J]
Zone,Meter,InteriorLights:Electricity:Zone:OFFICE_PRIVATE_65 [J]
Zone,Meter,General:InteriorLights:Electricity:Zone:OFFICE_PRIVATE_65 [J]
Zone,Meter,Electricity:Zone:STORAGE_65 [J]
Zone,Meter,InteriorLights:Electricity:Zone:STORAGE_65 [J]
Zone,Meter,General:InteriorLights:Electricity:Zone:STORAGE_65 [J]
Zone,Meter,Electricity:Zone:LOBBY_66 [J]
Zone,Meter,InteriorLights:Electricity:Zone:LOBBY_66 [J]
Zone,Meter,General:InteriorLights:Electricity:Zone:LOBBY_66 [J]
Zone,Meter,Electricity:Zone:BREAK_ROOM_66 [J]
Zone,Meter,InteriorLights:Electricity:Zone:BREAK_ROOM_66 [J]
Zone,Meter,General:InteriorLights:Electricity:Zone:BREAK_ROOM_66 [J]
Zone,Meter,Electricity:Zone:MECHANICAL_66 [J]
Zone,Meter,InteriorLights:Electricity:Zone:MECHANICAL_66 [J]
Zone,Meter,General:InteriorLights:Electricity:Zone:MECHANICAL_66 [J]
Zone,Meter,Electricity:Zone:OFFICE_OPEN_66 [J]
Zone,Meter,InteriorLights:Electricity:Zone:OFFICE_OPEN_66 [J]
Zone,Meter,General:InteriorLights:Electricity:Zone:OFFICE_OPEN_66 [J]
Zone,Meter,Electricity:Zone:OFFICE_PRIVATE_66 [J]
Zone,Meter,InteriorLights:Electricity:Zone:OFFICE_PRIVATE_66 [J]
Zone,Meter,General:InteriorLights:Electricity:Zone:OFFICE_PRIVATE_66 [J]
Zone,Meter,Electricity:Zone:STORAGE_66 [J]
Zone,Meter,InteriorLights:Electricity:Zone:STORAGE_66 [J]
Zone,Meter,General:InteriorLights:Electricity:Zone:STORAGE_66 [J]
Zone,Meter,Electricity:Zone:MECHANICAL_67 [J]
Zone,Meter,InteriorLights:Electricity:Zone:MECHANICAL_67 [J]
Zone,Meter,General:InteriorLights:Electricity:Zone:MECHANICAL_67 [J]
Zone,Meter,Electricity:Zone:OFFICE_PRIVATE_67 [J]
Zone,Meter,InteriorLights:Electricity:Zone:OFFICE_PRIVATE_67 [J]
Zone,Meter,General:InteriorLights:Electricity:Zone:OFFICE_PRIVATE_67 [J]
Zone,Meter,Electricity:Zone:STORAGE_67 [J]
Zone,Meter,InteriorLights:Electricity:Zone:STORAGE_67 [J]
Zone,Meter,General:InteriorLights:Electricity:Zone:STORAGE_67 [J]
Zone,Meter,Electricity:Zone:CONFERENCE_68 [J]
Zone,Meter,InteriorLights:Electricity:Zone:CONFERENCE_68 [J]
Zone,Meter,General:InteriorLights:Electricity:Zone:CONFERENCE_68 [J]
Zone,Meter,Electricity:Zone:BREAK_ROOM_68 [J]
Zone,Meter,InteriorLights:Electricity:Zone:BREAK_ROOM_68 [J]
Zone,Meter,General:InteriorLights:Electricity:Zone:BREAK_ROOM_68 [J]
Zone,Meter,Electricity:Zone:MECHANICAL_68 [J]
Zone,Meter,InteriorLights:Electricity:Zone:MECHANICAL_68 [J]
Zone,Meter,General:InteriorLights:Electricity:Zone:MECHANICAL_68 [J]
Zone,Meter,Electricity:Zone:OFFICE_OPEN_68 [J]
Zone,Meter,InteriorLights:Electricity:Zone:OFFICE_OPEN_68 [J]
Zone,Meter,General:InteriorLights:Electricity:Zone:OFFICE_OPEN_68 [J]
Zone,Meter,Electricity:Zone:STORAGE_68 [J]
Zone,Meter,InteriorLights:Electricity:Zone:STORAGE_68 [J]
Zone,Meter,General:InteriorLights:Electricity:Zone:STORAGE_68 [J]
Zone,Meter,Electricity:Zone:LOBBY_69 [J]
Zone,Meter,InteriorLights:Electricity:Zone:LOBBY_69 [J]
Zone,Meter,General:InteriorLights:Electricity:Zone:LOBBY_69 [J]
Zone,Meter,Electricity:Zone:CONFERENCE_69 [J]
Zone,Meter,InteriorLights:Electricity:Zone:CONFERENCE_69 [J]
Zone,Meter,General:InteriorLights:Electricity:Zone:CONFERENCE_69 [J]
Zone,Meter,Electricity:Zone:OFFICE_OPEN_69 [J]
Zone,Meter,InteriorLights:Electricity:Zone:OFFICE_OPEN_69 [J]
Zone,Meter,General:InteriorLights:Electricity:Zone:OFFICE_OPEN_69 [J]
Zone,Meter,Electricity:Zone:OFFICE_PRIVATE_69 [J]
Zone,Meter,InteriorLights:Electricity:Zone:OFFICE_PRIVATE_69 [J]
Zone,Meter,General:InteriorLights:Electricity:Zone:OFFICE_PRIVATE_69 [J]
Zone,Meter,Electricity:Zone:STORAGE_69 [J]
Zone,Meter,InteriorLights:Electricity:Zone:STORAGE_69 [J]
Zone,Meter,General:InteriorLights:Electricity:Zone:STORAGE_69 [J]
Zone,Meter,Electricity:Zone:CONFERENCE_70 [J]
Zone,Meter,InteriorLights:Electricity:Zone:CONFERENCE_70 [J]
Zone,Meter,General:InteriorLights:Electricity:Zone:CONFERENCE_70 [J]
Zone,Meter,Electricity:Zone:BREAK_ROOM_70 [J]
Zone,Meter,InteriorLights:Electricity:Zone:BREAK_ROOM_70 [J]
Zone,Meter,General:InteriorLights:Electricity:Zone:BREAK_ROOM_70 [J]
Zone,Meter,Electricity:Zone:MECHANICAL_70 [J]
Zone,Meter,InteriorLights:Electricity:Zone:MECHANICAL_70 [J]
Zone,Meter,General:InteriorLights:Electricity:Zone:MECHANICAL_70 [J]
Zone,Meter,Electricity:Zone:OFFICE_OPEN_70 [J]
Zone,Meter,InteriorLights:Electricity:Zone:OFFICE_OPEN_70 [J]
Zone,Meter,General:InteriorLights:Electricity:Zone:OFFICE_OPEN_70 [J]
Zone,Meter,Electricity:Zone:STORAGE_70 [J]
Zone,Meter,InteriorLights:Electricity:Zone:STORAGE_70 [J]
Zone,Meter,General:InteriorLights:Electricity:Zone:STORAGE_70 [J]
Zone,Meter,Electricity:Zone:LOBBY_71 [J]
Zone,Meter,InteriorLights:Electricity:Zone:LOBBY_71 [J]
Zone,Meter,General:InteriorLights:Electricity:Zone:LOBBY_71 [J]
Zone,Meter,Electricity:Zone:CONFERENCE_71 [J]
Zone,Meter,InteriorLights:Electricity:Zone:CONFERENCE_71 [J]
Zone,Meter,General:InteriorLights:Electricity:Zone:CONFERENCE_71 [J]
Zone,Meter,Electricity:Zone:BREAK_ROOM_71 [J]
Zone,Meter,InteriorLights:Electricity:Zone:BREAK_ROOM_71 [J]
Zone,Meter,General:InteriorLights:Electricity:Zone:BREAK_ROOM_71 [J]
Zone,Meter,Electricity:Zone:MECHANICAL_71 [J]
Zone,Meter,InteriorLights:Electricity:Zone:MECHANICAL_71 [J]
Zone,Meter,General:InteriorLights:Electricity:Zone:MECHANICAL_71 [J]
Zone,Meter,Electricity:Zone:OFFICE_OPEN_71 [J]
Zone,Meter,InteriorLights:Electricity:Zone:OFFICE_OPEN_71 [J]
Zone,Meter,General:InteriorLights:Electricity:Zone:OFFICE_OPEN_71 [J]
Zone,Meter,Electricity:Zone:CONFERENCE_72 [J]
Zone,Meter,InteriorLights:Electricity:Zone:CONFERENCE_72 [J]
Zone,Meter,General:InteriorLights:Electricity:Zone:CONFERENCE_72 [J]
Zone,Meter,Electricity:Zone:MECHANICAL_72 [J]
Zone,Meter,InteriorLights:Electricity:Zone:MECHANICAL_72 [J]
Zone,Meter,General:InteriorLights:Electricity:Zone:MECHANICAL_72 [J]
Zone,Meter,Electricity:Zone:OFFICE_OPEN_72 [J]
Zone,Meter,InteriorLights:Electricity:Zone:OFFICE_OPEN_72 [J]
Zone,Meter,General:InteriorLights:Electricity:Zone:OFFICE_OPEN_72 [J]
Zone,Meter,Electricity:Zone:CONFERENCE_73 [J]
Zone,Meter,InteriorLights:Electricity:Zone:CONFERENCE_73 [J]
Zone,Meter,General:InteriorLights:Electricity:Zone:CONFERENCE_73 [J]
Zone,Meter,Electricity:Zone:BREAK_ROOM_73 [J]
Zone,Meter,InteriorLights:Electricity:Zone:BREAK_ROOM_73 [J]
Zone,Meter,General:InteriorLights:Electricity:Zone:BREAK_ROOM_73 [J]
Zone,Meter,Electricity:Zone:OFFICE_PRIVATE_73 [J]
Zone,Meter,InteriorLights:Electricity:Zone:OFFICE_PRIVATE_73 [J]
Zone,Meter,General:InteriorLights:Electricity:Zone:OFFICE_PRIVATE_73 [J]
Zone,Meter,Electricity:Zone:STORAGE_73 [J]
Zone,Meter,InteriorLights:Electricity:Zone:STORAGE_73 [J]
Zone,Meter,General:InteriorLights:Electricity:Zone:STORAGE_73 [J]
Zone,Meter,Electricity:Zone:CONFERENCE_74 [J]
Zone,Meter,InteriorLights:Electricity:Zone:CONFERENCE_74 [J]
Zone,Meter,General:InteriorLights:Electricity:Zone:CONFERENCE_74 [J]
Zone,Meter,Electricity:Zone:MECHANICAL_74 [J]
Zone,Meter,InteriorLights:Electricity:Zone:MECHANICAL_74 [J]
Zone,Meter,General:InteriorLights:Electricity:Zone:MECHANICAL_74 [J]
Zone,Meter,Electricity:Zone:OFFICE_PRIVATE_74 [J]
Zone,Meter,InteriorLights:Electricity:Zone:OFFICE_PRIVATE_74 [J]
Zone,Meter,General:InteriorLights:Electricity:Zone:OFFICE_PRIVATE_74 [J]
Zone,Meter,Electricity:Zone:STORAGE_74 [J]
Zone,Meter,InteriorLights:Electricity:Zone:STORAGE_74 [J]
Zone,Meter,General:InteriorLights:Electricity:Zone:STORAGE_74 [J]
Zone,Meter,Electricity:Zone:LOBBY_75 [J]
Zone,Meter,InteriorLights:Electricity:Zone:LOBBY_75 [J]
Zone,Meter,General:InteriorLights:Electricity:Zone:LOBBY_75 [J]
Zone,Meter,Electricity:Zone:BREAK_ROOM_75 [J]
Zone,Meter,InteriorLights:Electricity:Zone:BREAK_ROOM_75 [J]
Zone,Meter,General:InteriorLights:Electricity:Zone:BREAK_ROOM_75 [J]
Zone,Meter,Electricity:Zone:MECHANICAL_75 [J]
Zone,Meter,InteriorLights:Electricity:Zone:MECHANICAL_75 [J]
Zone,Meter,General:InteriorLights:Electricity:Zone:MECHANICAL_75 [J]
Zone,Meter,Electricity:Zone:OFFICE_OPEN_75 [J]
Zone,Meter,InteriorLights:Electricity:Zone:OFFICE_OPEN_75 [J]
Zone,Meter,General:InteriorLights:Electricity:Zone:OFFICE_OPEN_75 [J]
Zone,Meter,Electricity:Zone:OFFICE_PRIVATE_75 [J]
Zone,Meter,InteriorLights:Electricity:Zone:OFFICE_PRIVATE_75 [J]
Zone,Meter,General:InteriorLights:Electricity:Zone:OFFICE_PRIVATE_75 [J]
Zone,Meter,Electricity:Zone:LOBBY_76 [J]
Zone,Meter,InteriorLights:Electricity:Zone:LOBBY_76 [J]
Zone,Meter,General:InteriorLights:Electricity:Zone:LOBBY_76 [J]
Zone,Meter,Electricity:Zone:CONFERENCE_76 [J]
Zone,Meter,InteriorLights:Electricity:Zone:CONFERENCE_76 [J]
Zone,Meter,General:InteriorLights:Electricity:Zone:CONFERENCE_76 [J]
Zone,Meter,Electricity:Zone:BREAK_ROOM_76 [J]
Zone,Meter,InteriorLights:Electricity:Zone:BREAK_ROOM_76 [J]
Zone,Meter,General:InteriorLights:Electricity:Zone:BREAK_ROOM_76 [J]
Zone,Meter,Electricity:Zone:MECHANICAL_76 [J]
Zone,Meter,InteriorLights:Electricity:Zone:MECHANICAL_76 [J]
Zone,Meter,General:InteriorLights:Electricity:Zone:MECHANICAL_76 [J]
Zone,Meter,Electricity:Zone:STORAGE_76 [J]
Zone,Meter,InteriorLights:Electricity:Zone:STORAGE_76 [J]
Zone,Meter,General:InteriorLights:Electricity:Zone:STORAGE_76 [J]
Zone,Meter,Electricity:Zone:LOBBY_77 [J]
Zone,Meter,InteriorLights:Electricity:Zone:LOBBY_77 [J]
Zone,Meter,General:InteriorLights:Electricity:Zone:LOBBY_77 [J]
Zone,Meter,Electricity:Zone:BREAK_ROOM_77 [J]
Zone,Meter,InteriorLights:Electricity:Zone:BREAK_ROOM_77 [J]
Zone,Meter,General:InteriorLights:Electricity:Zone:BREAK_ROOM_77 [J]
Zone,Meter,Electricity:Zone:MECHANICAL_77 [J]
Zone,Meter,InteriorLights:Electricity:Zone:MECHANICAL_77 [J]
Zone,Meter,General:InteriorLights:Electricity:Zone:MECHANICAL_77 [J]
Zone,Meter,Electricity:Zone:OFFICE_PRIVATE_77 [J]
Zone,Meter,InteriorLights:Electricity:Zone:OFFICE_PRIVATE_77 [J]
Zone,Meter,General:InteriorLights:Electricity:Zone:OFFICE_PRIVATE_77 [J]
Zone,Meter,Electricity:Zone:STORAGE_77 [J]
Zone,Meter,InteriorLights:Electricity:Zone:STORAGE_77 [J]
Zone,Meter,General:InteriorLights:Electricity:Zone:STORAGE_77 [J]
Zone,Meter,Electricity:Zone:LOBBY_78 [J]
Zone,Meter,InteriorLights:Electricity:Zone:LOBBY_78 [J]
Zone,Meter,General:InteriorLights:Electricity:Zone:LOBBY_78 [J]
Zone,Meter,Electricity:Zone:CONFERENCE_78 [J]
Zone,Meter,InteriorLights:Electricity:Zone:CONFERENCE_78 [J]
Zone,Meter,General:InteriorLights:Electricity:Zone:CONFERENCE_78 [J]
Zone,Meter,Electricity:Zone:MECHANICAL_78 [J]
Zone,Meter,InteriorLights:Electricity:Zone:MECHANICAL_78 [J]
Zone,Meter,General:InteriorLights:Electricity:Zone:MECHANICAL_78 [J]
Zone,Meter,Electricity:Zone:STORAGE_78 [J]
Zone,Meter,InteriorLights:Electricity:Zone:STORAGE_78 [J]
Zone,Meter,General:InteriorLights:Electricity:Zone:STORAGE_78 [J]
Zone,Meter,Electricity:Zone:CONFERENCE_79 [J]
Zone,Meter,InteriorLights:Electricity:Zone:CONFERENCE_79 [J]
Zone,Meter,General:InteriorLights:Electricity:Zone:CONFERENCE_79 [J]
Zone,Meter,Electricity:Zone:BREAK_ROOM_79 [J]
Zone,Meter,InteriorLights:Electricity:Zone:BREAK_ROOM_79 [J]
Zone,Meter,General:InteriorLights:Electricity:Zone:BREAK_ROOM_79 [J]
Zone,Meter,Electricity:Zone:OFFICE_OPEN_79 [J]
Zone,Meter,InteriorLights:Electricity:Zone:OFFICE_OPEN_79 [J]
Zone,Meter,General:InteriorLights:Electricity:Zone:OFFICE_OPEN_79 [J]
Zone,Meter,Electricity:Zone:STORAGE_79 [J]
Zone,Meter,InteriorLights:Electricity:Zone:STORAGE_79 [J]
Zone,Meter,General:InteriorLights:Electricity:Zone:STORAGE_79 [J]
Zone,Meter,Electricity:Zone:LOBBY_80 [J]
Zone,Meter,InteriorLights:Electricity:Zone:LOBBY_80 [J]
Zone,Meter,General:InteriorLights:Electricity:Zone:LOBBY_80 [J]
Zone,Meter,Electricity:Zone:CONFERENCE_80 [J]
Zone,Meter,InteriorLights:Electricity:Zone:CONFERENCE_80 [J]
Zone,Meter,General:InteriorLights:Electricity:Zone:CONFERENCE_80 [J]
Zone,Meter,Electricity:Zone:BREAK_ROOM_80 [J]
Zone,Meter,InteriorLights:Electricity:Zone:BREAK_ROOM_80 [J]
Zone,Meter,General:InteriorLights:Electricity:Zone:BREAK_ROOM_80 [J]
Zone,Meter,Electricity:Zone:MECHANICAL_80 [J]
Zone,Meter,InteriorLights:Electricity:Zone:MECHANICAL_80 [J]
Zone,Meter,General:InteriorLights:Electricity:Zone:MECHANICAL_80 [J]
Zone,Meter,Electricity:Zone:STORAGE_80 [J]
Zone,Meter,InteriorLights:Electricity:Zone:STORAGE_80 [J]
Zone,Meter,General:InteriorLights:Electricity:Zone:STORAGE_80 [J]
Zone,Meter,Electricity:Zone:LOBBY_81 [J]
Zone,Meter,InteriorLights:Electricity:Zone:LOBBY_81 [J]
Zone,Meter,General:InteriorLights:Electricity:Zone:LOBBY_81 [J]
Zone,Meter,Electricity:Zone:BREAK_ROOM_81 [J]
Zone,Meter,InteriorLights:Electricity:Zone:BREAK_ROOM_81 [J]
Zone,Meter,General:InteriorLights:Electricity:Zone:BREAK_ROOM_81 [J]
Zone,Meter,Electricity:Zone:MECHANICAL_81 [J]
Zone,Meter,InteriorLights:Electricity:Zone:MECHANICAL_81 [J]
Zone,Meter,General:InteriorLights:Electricity:Zone:MECHANICAL_81 [J]
Zone,Meter,Electricity:Zone:OFFICE_PRIVATE_81 [J]
Zone,Meter,InteriorLights:Electricity:Zone:OFFICE_PRIVATE_81 [J]
Zone,Meter,General:InteriorLights:Electricity:Zone:OFFICE_PRIVATE_81 [J]
Zone,Meter,InteriorEquipment:Electricity [J]
Zone,Meter,InteriorEquipment:Electricity:Zone:LOBBY_0 [J]
Zone,Meter,InteriorEquipment:Electricity:SpaceType:GENERAL [J]
Zone,Meter,General:InteriorEquipment:Electricity [J]
Zone,Meter,General:InteriorEquipment:Electricity:Zone:LOBBY_0 [J]
Zone,Meter,General:InteriorEquipment:Electricity:SpaceType:GENERAL [J]
Zone,Meter,InteriorEquipment:Electricity:Zone:MECHANICAL_0 [J]
Zone,Meter,General:InteriorEquipment:Electricity:Zone:MECHANICAL_0 [J]
Zone,Meter,InteriorEquipment:Electricity:Zone:OFFICE_PRIVATE_0 [J]
Zone,Meter,General:InteriorEquipment:Electricity:Zone:OFFICE_PRIVATE_0 [J]
Zone,Meter,InteriorEquipment:Electricity:Zone:STORAGE_0 [J]
Zone,Meter,General:InteriorEquipment:Electricity:Zone:STORAGE_0 [J]
Zone,Meter,InteriorEquipment:Electricity:Zone:LOBBY_1 [J]
Zone,Meter,General:InteriorEquipment:Electricity:Zone:LOBBY_1 [J]
Zone,Meter,InteriorEquipment:Electricity:Zone:CONFERENCE_1 [J]
Zone,Meter,General:InteriorEquipment:Electricity:Zone:CONFERENCE_1 [J]
Zone,Meter,InteriorEquipment:Electricity:Zone:BREAK_ROOM_1 [J]
Zone,Meter,General:InteriorEquipment:Electricity:Zone:BREAK_ROOM_1 [J]
Zone,Meter,InteriorEquipment:Electricity:Zone:OFFICE_PRIVATE_1 [J]
Zone,Meter,General:InteriorEquipment:Electricity:Zone:OFFICE_PRIVATE_1 [J]
Zone,Meter,InteriorEquipment:Electricity:Zone:STORAGE_1 [J]
Zone,Meter,General:InteriorEquipment:Electricity:Zone:STORAGE_1 [J]
Zone,Meter,InteriorEquipment:Electricity:Zone:CONFERENCE_2 [J]
Zone,Meter,General:InteriorEquipment:Electricity:Zone:CONFERENCE_2 [J]
Zone,Meter,InteriorEquipment:Electricity:Zone:MECHANICAL_2 [J]
Zone,Meter,General:InteriorEquipment:Electricity:Zone:MECHANICAL_2 [J]
Zone,Meter,InteriorEquipment:Electricity:Zone:OFFICE_OPEN_2 [J]
Zone,Meter,General:InteriorEquipment:Electricity:Zone:OFFICE_OPEN_2 [J]
Zone,Meter,InteriorEquipment:Electricity:Zone:LOBBY_3 [J]
Zone,Meter,General:InteriorEquipment:Electricity:Zone:LOBBY_3 [J]
Zone,Meter,InteriorEquipment:Electricity:Zone:CONFERENCE_3 [J]
Zone,Meter,General:InteriorEquipment:Electricity:Zone:CONFERENCE_3 [J]
Zone,Meter,InteriorEquipment:Electricity:Zone:BREAK_ROOM_3 [J]
Zone,Meter,General:InteriorEquipment:Electricity:Zone:BREAK_ROOM_3 [J]
Zone,Meter,InteriorEquipment:Electricity:Zone:MECHANICAL_3 [J]
Zone,Meter,General:InteriorEquipment:Electricity:Zone:MECHANICAL_3 [J]
Zone,Meter,InteriorEquipment:Electricity:Zone:OFFICE_OPEN_3 [J]
Zone,Meter,General:InteriorEquipment:Electricity:Zone:OFFICE_OPEN_3 [J]
Zone,Meter,InteriorEquipment:Electricity:Zone:OFFICE_PRIVATE_3 [J]
Zone,Meter,General:InteriorEquipment:Electricity:Zone:OFFICE_PRIVATE_3 [J]
Zone,Meter,InteriorEquipment:Electricity:Zone:STORAGE_3 [J]
Zone,Meter,General:InteriorEquipment:Electricity:Zone:STORAGE_3 [J]
Zone,Meter,InteriorEquipment:Electricity:Zone:LOBBY_4 [J]
Zone,Meter,General:InteriorEquipment:Electricity:Zone:LOBBY_4 [J]
Zone,Meter,InteriorEquipment:Electricity:Zone:BREAK_ROOM_4 [J]
Zone,Meter,General:InteriorEquipment:Electricity:Zone:BREAK_ROOM_4 [J]
Zone,Meter,InteriorEquipment:Electricity:Zone:MECHANICAL_4 [J]
Zone,Meter,General:InteriorEquipment:Electricity:Zone:MECHANICAL_4 [J]
Zone,Meter,InteriorEquipment:Electricity:Zone:OFFICE_OPEN_4 [J]
Zone,Meter,General:InteriorEquipment:Electricity:Zone:OFFICE_OPEN_4 [J]
Zone,Meter,InteriorEquipment:Electricity:Zone:OFFICE_PRIVATE_4 [J]
Zone,Meter,General:InteriorEquipment:Electricity:Zone:OFFICE_PRIVATE_4 [J]
Zone,Meter,InteriorEquipment:Electricity:Zone:CONFERENCE_5 [J]
Zone,Meter,General:InteriorEquipment:Electricity:Zone:CONFERENCE_5 [J]
Zone,Meter,InteriorEquipment:Electricity:Zone:MECHANICAL_5 [J]
Zone,Meter,General:InteriorEquipment:Electricity:Zone:MECHANICAL_5 [J]
Zone,Meter,InteriorEquipment:Electricity:Zone:OFFICE_OPEN_5 [J]
Zone,Meter,General:InteriorEquipment:Electricity:Zone:OFFICE_OPEN_5 [J]
Zone,Meter,InteriorEquipment:Electricity:Zone:LOBBY_6 [J]
Zone,Meter,General:InteriorEquipment:Electricity:Zone:LOBBY_6 [J]
Zone,Meter,InteriorEquipment:Electricity:Zone:CONFERENCE_6 [J]
Zone,Meter,General:InteriorEquipment:Electricity:Zone:CONFERENCE_6 [J]
Zone,Meter,InteriorEquipment:Electricity:Zone:MECHANICAL_6 [J]
Zone,Meter,General:InteriorEquipment:Electricity:Zone:MECHANICAL_6 [J]
Zone,Meter,InteriorEquipment:Electricity:Zone:OFFICE_PRIVATE_6 [J]
Zone,Meter,General:InteriorEquipment:Electricity:Zone:OFFICE_PRIVATE_6 [J]
Zone,Meter,InteriorEquipment:Electricity:Zone:STORAGE_6 [J]
Zone,Meter,General:InteriorEquipment:Electricity:Zone:STORAGE_6 [J]
Zone,Meter,InteriorEquipment:Electricity:Zone:LOBBY_7 [J]
Zone,Meter,General:InteriorEquipment:Electricity:Zone:LOBBY_7 [J]
Zone,Meter,InteriorEquipment:Electricity:Zone:CONFERENCE_7 [J]
Zone,Meter,General:InteriorEquipment:Electricity:Zone:CONFERENCE_7 [J]
Zone,Meter,InteriorEquipment:Electricity:Zone:MECHANICAL_7 [J]
Zone,Meter,General:InteriorEquipment:Electricity:Zone:MECHANICAL_7 [J]
Zone,Meter,InteriorEquipment:Electricity:Zone:OFFICE_OPEN_7 [J]
Zone,Meter,General:InteriorEquipment:Electricity:Zone:OFFICE_OPEN_7 [J]
Zone,Meter,InteriorEquipment:Electricity:Zone:OFFICE_PRIVATE_7 [J]
Zone,Meter,General:InteriorEquipment:Electricity:Zone:OFFICE_PRIVATE_7 [J]
Zone,Meter,InteriorEquipment:Electricity:Zone:STORAGE_7 [J]
Zone,Meter,General:InteriorEquipment:Electricity:Zone:STORAGE_7 [J]
Zone,Meter,InteriorEquipment:Electricity:Zone:LOBBY_8 [J]
Zone,Meter,General:InteriorEquipment:Electricity:Zone:LOBBY_8 [J]
Zone,Meter,InteriorEquipment:Electricity:Zone:MECHANICAL_8 [J]
Zone,Meter,General:InteriorEquipment:Electricity:Zone:MECHANICAL_8 [J]
Zone,Meter,InteriorEquipment:Electricity:Zone:BREAK_ROOM_9 [J]
Zone,Meter,General:InteriorEquipment:Electricity:Zone:BREAK_ROOM_9 [J]
Zone,Meter,InteriorEquipment:Electricity:Zone:OFFICE_OPEN_9 [J]
Zone,Meter,General:InteriorEquipment:Electricity:Zone:OFFICE_OPEN_9 [J]
Zone,Meter,InteriorEquipment:Electricity:Zone:OFFICE_PRIVATE_9 [J]
Zone,Meter,General:InteriorEquipment:Electricity:Zone:OFFICE_PRIVATE_9 [J]
Zone,Meter,InteriorEquipment:Electricity:Zone:STORAGE_9 [J]
Zone,Meter,General:InteriorEquipment:Electricity:Zone:STORAGE_9 [J]
Zone,Meter,InteriorEquipment:Electricity:Zone:CONFERENCE_10 [J]
Zone,Meter,General:InteriorEquipment:Electricity:Zone:CONFERENCE_10 [J]
Zone,Meter,InteriorEquipment:Electricity:Zone:BREAK_ROOM_10 [J]
Zone,Meter,General:InteriorEquipment:Electricity:Zone:BREAK_ROOM_10 [J]
Zone,Meter,InteriorEquipment:Electricity:Zone:OFFICE_PRIVATE_10 [J]
Zone,Meter,General:InteriorEquipment:Electricity:Zone:OFFICE_PRIVATE_10 [J]
Zone,Meter,InteriorEquipment:Electricity:Zone:STORAGE_10 [J]
Zone,Meter,General:InteriorEquipment:Electricity:Zone:STORAGE_10 [J]
Zone,Meter,InteriorEquipment:Electricity:Zone:CONFERENCE_11 [J]
Zone,Meter,General:InteriorEquipment:Electricity:Zone:CONFERENCE_11 [J]
Zone,Meter,InteriorEquipment:Electricity:Zone:BREAK_ROOM_11 [J]
Zone,Meter,General:InteriorEquipment:Electricity:Zone:BREAK_ROOM_11 [J]
Zone,Meter,InteriorEquipment:Electricity:Zone:MECHANICAL_11 [J]
Zone,Meter,General:InteriorEquipment:Electricity:Zone:MECHANICAL_11 [J]
Zone,Meter,InteriorEquipment:Electricity:Zone:OFFICE_OPEN_11 [J]
Zone,Meter,General:InteriorEquipment:Electricity:Zone:OFFICE_OPEN_11 [J]
Zone,Meter,InteriorEquipment:Electricity:Zone:OFFICE_PRIVATE_11 [J]
Zone,Meter,General:InteriorEquipment:Electricity:Zone:OFFICE_PRIVATE_11 [J]
Zone,Meter,InteriorEquipment:Electricity:Zone:STORAGE_11 [J]
Zone,Meter,General:InteriorEquipment:Electricity:Zone:STORAGE_11 [J]
Zone,Meter,InteriorEquipment:Electricity:Zone:LOBBY_12 [J]
Zone,Meter,General:InteriorEquipment:Electricity:Zone:LOBBY_12 [J]
Zone,Meter,InteriorEquipment:Electricity:Zone:CONFERENCE_12 [J]
Zone,Meter,General:InteriorEquipment:Electricity:Zone:CONFERENCE_12 [J]
Zone,Meter,InteriorEquipment:Electricity:Zone:STORAGE_12 [J]
Zone,Meter,General:InteriorEquipment:Electricity:Zone:STORAGE_12 [J]
Zone,Meter,InteriorEquipment:Electricity:Zone:LOBBY_13 [J]
Zone,Meter,General:InteriorEquipment:Electricity:Zone:LOBBY_13 [J]
Zone,Meter,InteriorEquipment:Electricity:Zone:CONFERENCE_13 [J]
Zone,Meter,General:InteriorEquipment:Electricity:Zone:CONFERENCE_13 [J]
Zone,Meter,InteriorEquipment:Electricity:Zone:MECHANICAL_13 [J]
Zone,Meter,General:InteriorEquipment:Electricity:Zone:MECHANICAL_13 [J]
Zone,Meter,InteriorEquipment:Electricity:Zone:OFFICE_PRIVATE_13 [J]
Zone,Meter,General:InteriorEquipment:Electricity:Zone:OFFICE_PRIVATE_13 [J]
Zone,Meter,InteriorEquipment:Electricity:Zone:STORAGE_13 [J]
Zone,Meter,General:InteriorEquipment:Electricity:Zone:STORAGE_13 [J]
Zone,Meter,InteriorEquipment:Electricity:Zone:LOBBY_14 [J]
Zone,Meter,General:InteriorEquipment:Electricity:Zone:LOBBY_14 [J]
Zone,Meter,InteriorEquipment:Electricity:Zone:CONFERENCE_14 [J]
Zone,Meter,General:InteriorEquipment:Electricity:Zone:CONFERENCE_14 [J]
Zone,Meter,InteriorEquipment:Electricity:Zone:BREAK_ROOM_14 [J]
Zone,Meter,General:InteriorEquipment:Electricity:Zone:BREAK_ROOM_14 [J]
Zone,Meter,InteriorEquipment:Electricity:Zone:OFFICE_OPEN_14 [J]
Zone,Meter,General:InteriorEquipment:Electricity:Zone:OFFICE_OPEN_14 [J]
Zone,Meter,InteriorEquipment:Electricity:Zone:OFFICE_PRIVATE_14 [J]
Zone,Meter,General:InteriorEquipment:Electricity:Zone:OFFICE_PRIVATE_14 [J]
Zone,Meter,InteriorEquipment:Electricity:Zone:CONFERENCE_15 [J]
Zone,Meter,General:InteriorEquipment:Electricity:Zone:CONFERENCE_15 [J]
Zone,Meter,InteriorEquipment:Electricity:Zone:BREAK_ROOM_15 [J]
Zone,Meter,General:InteriorEquipment:Electricity:Zone:BREAK_ROOM_15 [J]
Zone,Meter,InteriorEquipment:Electricity:Zone:MECHANICAL_15 [J]
Zone,Meter,General:InteriorEquipment:Electricity:Zone:MECHANICAL_15 [J]
Zone,Meter,InteriorEquipment:Electricity:Zone:OFFICE_PRIVATE_15 [J]
Zone,Meter,General:InteriorEquipment:Electricity:Zone:OFFICE_PRIVATE_15 [J]
Zone,Meter,InteriorEquipment:Electricity:Zone:LOBBY_16 [J]
Zone,Meter,General:InteriorEquipment:Electricity:Zone:LOBBY_16 [J]
Zone,Meter,InteriorEquipment:Electricity:Zone:BREAK_ROOM_16 [J]
Zone,Meter,General:InteriorEquipment:Electricity:Zone:BREAK_ROOM_16 [J]
Zone,Meter,InteriorEquipment:Electricity:Zone:OFFICE_OPEN_16 [J]
Zone,Meter,General:InteriorEquipment:Electricity:Zone:OFFICE_OPEN_16 [J]
Zone,Meter,InteriorEquipment:Electricity:Zone:OFFICE_PRIVATE_16 [J]
Zone,Meter,General:InteriorEquipment:Electricity:Zone:OFFICE_PRIVATE_16 [J]
Zone,Meter,InteriorEquipment:Electricity:Zone:STORAGE_16 [J]
Zone,Meter,General:InteriorEquipment:Electricity:Zone:STORAGE_16 [J]
Zone,Meter,InteriorEquipment:Electricity:Zone:CONFERENCE_17 [J]
Zone,Meter,General:InteriorEquipment:Electricity:Zone:CONFERENCE_17 [J]
Zone,Meter,InteriorEquipment:Electricity:Zone:MECHANICAL_17 [J]
Zone,Meter,General:InteriorEquipment:Electricity:Zone:MECHANICAL_17 [J]
Zone,Meter,InteriorEquipment:Electricity:Zone:OFFICE_OPEN_17 [J]
Zone,Meter,General:InteriorEquipment:Electricity:Zone:OFFICE_OPEN_17 [J]
Zone,Meter,InteriorEquipment:Electricity:Zone:OFFICE_PRIVATE_17 [J]
Zone,Meter,General:InteriorEquipment:Electricity:Zone:OFFICE_PRIVATE_17 [J]
Zone,Meter,InteriorEquipment:Electricity:Zone:STORAGE_17 [J]
Zone,Meter,General:InteriorEquipment:Electricity:Zone:STORAGE_17 [J]
Zone,Meter,InteriorEquipment:Electricity:Zone:BREAK_ROOM_18 [J]
Zone,Meter,General:InteriorEquipment:Electricity:Zone:BREAK_ROOM_18 [J]
Zone,Meter,InteriorEquipment:Electricity:Zone:MECHANICAL_18 [J]
Zone,Meter,General:InteriorEquipment:Electricity:Zone:MECHANICAL_18 [J]
Zone,Meter,InteriorEquipment:Electricity:Zone:OFFICE_PRIVATE_18 [J]
Zone,Meter,General:InteriorEquipment:Electricity:Zone:OFFICE_PRIVATE_18 [J]
Zone,Meter,InteriorEquipment:Electricity:Zone:STORAGE_18 [J]
Zone,Meter,General:InteriorEquipment:Electricity:Zone:STORAGE_18 [J]
Zone,Meter,InteriorEquipment:Electricity:Zone:LOBBY_19 [J]
Zone,Meter,General:InteriorEquipment:Electricity:Zone:LOBBY_19 [J]
Zone,Meter,InteriorEquipment:Electricity:Zone:BREAK_ROOM_19 [J]
Zone,Meter,General:InteriorEquipment:Electricity:Zone:BREAK_ROOM_19 [J]
Zone,Meter,InteriorEquipment:Electricity:Zone:OFFICE_OPEN_19 [J]
Zone,Meter,General:InteriorEquipment:Electricity:Zone:OFFICE_OPEN_19 [J]
Zone,Meter,InteriorEquipment:Electricity:Zone:OFFICE_PRIVATE_19 [J]
Zone,Meter,General:InteriorEquipment:Electricity:Zone:OFFICE_PRIVATE_19 [J]
Zone,Meter,InteriorEquipment:Electricity:Zone:STORAGE_19 [J]
Zone,Meter,General:InteriorEquipment:Electricity:Zone:STORAGE_19 [J]
Zone,Meter,InteriorEquipment:Electricity:Zone:LOBBY_20 [J]
Zone,Meter,General:InteriorEquipment:Electricity:Zone:LOBBY_20 [J]
Zone,Meter,InteriorEquipment:Electricity:Zone:CONFERENCE_20 [J]
Zone,Meter,General:InteriorEquipment:Electricity:Zone:CONFERENCE_20 [J]
Zone,Meter,InteriorEquipment:Electricity:Zone:BREAK_ROOM_20 [J]
Zone,Meter,General:InteriorEquipment:Electricity:Zone:BREAK_ROOM_20 [J]
Zone,Meter,InteriorEquipment:Electricity:Zone:MECHANICAL_20 [J]
[...]
Zone,Meter,General:Cooling:EnergyTransfer:Zone:MECHANICAL_67 [J]
Zone,Meter,EnergyTransfer:Zone:OFFICE_PRIVATE_67 [J]
Zone,Meter,Heating:EnergyTransfer:Zone:OFFICE_PRIVATE_67 [J]
Zone,Meter,General:Heating:EnergyTransfer:Zone:OFFICE_PRIVATE_67 [J]
Zone,Meter,Cooling:EnergyTransfer:Zone:OFFICE_PRIVATE_67 [J]
Zone,Meter,General:Cooling:EnergyTransfer:Zone:OFFICE_PRIVATE_67 [J]
Zone,Meter,EnergyTransfer:Zone:STORAGE_67 [J]
Zone,Meter,Heating:EnergyTransfer:Zone:STORAGE_67 [J]
Zone,Meter,General:Heating:EnergyTransfer:Zone:STORAGE_67 [J]
Zone,Meter,Cooling:EnergyTransfer:Zone:STORAGE_67 [J]
Zone,Meter,General:Cooling:EnergyTransfer:Zone:STORAGE_67 [J]
Zone,Meter,EnergyTransfer:Zone:CONFERENCE_68 [J]
Zone,Meter,Heating:EnergyTransfer:Zone:CONFERENCE_68 [J]
Zone,Meter,General:Heating:EnergyTransfer:Zone:CONFERENCE_68 [J]
Zone,Meter,Cooling:EnergyTransfer:Zone:CONFERENCE_68 [J]
Zone,Meter,General:Cooling:EnergyTransfer:Zone:CONFERENCE_68 [J]
Zone,Meter,EnergyTransfer:Zone:BREAK_ROOM_68 [J]
Zone,Meter,Heating:EnergyTransfer:Zone:BREAK_ROOM_68 [J]
Zone,Meter,General:Heating:EnergyTransfer:Zone:BREAK_ROOM_68 [J]
Zone,Meter,Cooling:EnergyTransfer:Zone:BREAK_ROOM_68 [J]
Zone,Meter,General:Cooling:EnergyTransfer:Zone:BREAK_ROOM_68 [J]
Zone,Meter,EnergyTransfer:Zone:MECHANICAL_68 [J]
Zone,Meter,Heating:EnergyTransfer:Zone:MECHANICAL_68 [J]
Zone,Meter,General:Heating:EnergyTransfer:Zone:MECHANICAL_68 [J]
Zone,Meter,Cooling:EnergyTransfer:Zone:MECHANICAL_68 [J]
Zone,Meter,General:Cooling:EnergyTransfer:Zone:MECHANICAL_68 [J]
Zone,Meter,EnergyTransfer:Zone:OFFICE_OPEN_68 [J]
Zone,Meter,Heating:EnergyTransfer:Zone:OFFICE_OPEN_68 [J]
Zone,Meter,General:Heating:EnergyTransfer:Zone:OFFICE_OPEN_68 [J]
Zone,Meter,Cooling:EnergyTransfer:Zone:OFFICE_OPEN_68 [J]
Zone,Meter,General:Cooling:EnergyTransfer:Zone:OFFICE_OPEN_68 [J]
Zone,Meter,EnergyTransfer:Zone:STORAGE_68 [J]
Zone,Meter,Heating:EnergyTransfer:Zone:STORAGE_68 [J]
Zone,Meter,General:Heating:EnergyTransfer:Zone:STORAGE_68 [J]
Zone,Meter,Cooling:EnergyTransfer:Zone:STORAGE_68 [J]
Zone,Meter,General:Cooling:EnergyTransfer:Zone:STORAGE_68 [J]
Zone,Meter,EnergyTransfer:Zone:LOBBY_69 [J]
Zone,Meter,Heating:EnergyTransfer:Zone:LOBBY_69 [J]
Zone,Meter,General:Heating:EnergyTransfer:Zone:LOBBY_69 [J]
Zone,Meter,Cooling:EnergyTransfer:Zone:LOBBY_69 [J]
Zone,Meter,General:Cooling:EnergyTransfer:Zone:LOBBY_69 [J]
Zone,Meter,EnergyTransfer:Zone:CONFERENCE_69 [J]
Zone,Meter,Heating:EnergyTransfer:Zone:CONFERENCE_69 [J]
Zone,Meter,General:Heating:EnergyTransfer:Zone:CONFERENCE_69 [J]
Zone,Meter,Cooling:EnergyTransfer:Zone:CONFERENCE_69 [J]
Zone,Meter,General:Cooling:EnergyTransfer:Zone:CONFERENCE_69 [J]
Zone,Meter,EnergyTransfer:Zone:OFFICE_OPEN_69 [J]
Zone,Meter,Heating:EnergyTransfer:Zone:OFFICE_OPEN_69 [J]
Zone,Meter,General:Heating:EnergyTransfer:Zone:OFFICE_OPEN_69 [J]
Zone,Meter,Cooling:EnergyTransfer:Zone:OFFICE_OPEN_69 [J]
Zone,Meter,General:Cooling:EnergyTransfer:Zone:OFFICE_OPEN_69 [J]
Zone,Meter,EnergyTransfer:Zone:OFFICE_PRIVATE_69 [J]
Zone,Meter,Heating:EnergyTransfer:Zone:OFFICE_PRIVATE_69 [J]
Zone,Meter,General:Heating:EnergyTransfer:Zone:OFFICE_PRIVATE_69 [J]
Zone,Meter,Cooling:EnergyTransfer:Zone:OFFICE_PRIVATE_69 [J]
Zone,Meter,General:Cooling:EnergyTransfer:Zone:OFFICE_PRIVATE_69 [J]
Zone,Meter,EnergyTransfer:Zone:STORAGE_69 [J]
Zone,Meter,Heating:EnergyTransfer:Zone:STORAGE_69 [J]
Zone,Meter,General:Heating:EnergyTransfer:Zone:STORAGE_69 [J]
Zone,Meter,Cooling:EnergyTransfer:Zone:STORAGE_69 [J]
Zone,Meter,General:Cooling:EnergyTransfer:Zone:STORAGE_69 [J]
Zone,Meter,EnergyTransfer:Zone:CONFERENCE_70 [J]
Zone,Meter,Heating:EnergyTransfer:Zone:CONFERENCE_70 [J]
Zone,Meter,General:Heating:EnergyTransfer:Zone:CONFERENCE_70 [J]
Zone,Meter,Cooling:EnergyTransfer:Zone:CONFERENCE_70 [J]
Zone,Meter,General:Cooling:EnergyTransfer:Zone:CONFERENCE_70 [J]
Zone,Meter,EnergyTransfer:Zone:BREAK_ROOM_70 [J]
Zone,Meter,Heating:EnergyTransfer:Zone:BREAK_ROOM_70 [J]
Zone,Meter,General:Heating:EnergyTransfer:Zone:BREAK_ROOM_70 [J]
Zone,Meter,Cooling:EnergyTransfer:Zone:BREAK_ROOM_70 [J]
Zone,Meter,General:Cooling:EnergyTransfer:Zone:BREAK_ROOM_70 [J]
Zone,Meter,EnergyTransfer:Zone:MECHANICAL_70 [J]
Zone,Meter,Heating:EnergyTransfer:Zone:MECHANICAL_70 [J]
Zone,Meter,General:Heating:EnergyTransfer:Zone:MECHANICAL_70 [J]
Zone,Meter,Cooling:EnergyTransfer:Zone:MECHANICAL_70 [J]
Zone,Meter,General:Cooling:EnergyTransfer:Zone:MECHANICAL_70 [J]
Zone,Meter,EnergyTransfer:Zone:OFFICE_OPEN_70 [J]
Zone,Meter,Heating:EnergyTransfer:Zone:OFFICE_OPEN_70 [J]
Zone,Meter,General:Heating:EnergyTransfer:Zone:OFFICE_OPEN_70 [J]
Zone,Meter,Cooling:EnergyTransfer:Zone:OFFICE_OPEN_70 [J]
Zone,Meter,General:Cooling:EnergyTransfer:Zone:OFFICE_OPEN_70 [J]
Zone,Meter,EnergyTransfer:Zone:STORAGE_70 [J]
Zone,Meter,Heating:EnergyTransfer:Zone:STORAGE_70 [J]
Zone,Meter,General:Heating:EnergyTransfer:Zone:STORAGE_70 [J]
Zone,Meter,Cooling:EnergyTransfer:Zone:STORAGE_70 [J]
Zone,Meter,General:Cooling:EnergyTransfer:Zone:STORAGE_70 [J]
Zone,Meter,EnergyTransfer:Zone:LOBBY_71 [J]
Zone,Meter,Heating:EnergyTransfer:Zone:LOBBY_71 [J]
Zone,Meter,General:Heating:EnergyTransfer:Zone:LOBBY_71 [J]
Zone,Meter,Cooling:EnergyTransfer:Zone:LOBBY_71 [J]
Zone,Meter,General:Cooling:EnergyTransfer:Zone:LOBBY_71 [J]
Zone,Meter,EnergyTransfer:Zone:CONFERENCE_71 [J]
Zone,Meter,Heating:EnergyTransfer:Zone:CONFERENCE_71 [J]
Zone,Meter,General:Heating:EnergyTransfer:Zone:CONFERENCE_71 [J]
Zone,Meter,Cooling:EnergyTransfer:Zone:CONFERENCE_71 [J]
Zone,Meter,General:Cooling:EnergyTransfer:Zone:CONFERENCE_71 [J]
Zone,Meter,EnergyTransfer:Zone:BREAK_ROOM_71 [J]
Zone,Meter,Heating:EnergyTransfer:Zone:BREAK_ROOM_71 [J]
Zone,Meter,General:Heating:EnergyTransfer:Zone:BREAK_ROOM_71 [J]
Zone,Meter,Cooling:EnergyTransfer:Zone:BREAK_ROOM_71 [J]
Zone,Meter,General:Cooling:EnergyTransfer:Zone:BREAK_ROOM_71 [J]
Zone,Meter,EnergyTransfer:Zone:MECHANICAL_71 [J]
Zone,Meter,Heating:EnergyTransfer:Zone:MECHANICAL_71 [J]
Zone,Meter,General:Heating:EnergyTransfer:Zone:MECHANICAL_71 [J]
Zone,Meter,Cooling:EnergyTransfer:Zone:MECHANICAL_71 [J]
Zone,Meter,General:Cooling:EnergyTransfer:Zone:MECHANICAL_71 [J]
Zone,Meter,EnergyTransfer:Zone:OFFICE_OPEN_71 [J]
Zone,Meter,Heating:EnergyTransfer:Zone:OFFICE_OPEN_71 [J]
Zone,Meter,General:Heating:EnergyTransfer:Zone:OFFICE_OPEN_71 [J]
Zone,Meter,Cooling:EnergyTransfer:Zone:OFFICE_OPEN_71 [J]
Zone,Meter,General:Cooling:EnergyTransfer:Zone:OFFICE_OPEN_71 [J]
Zone,Meter,EnergyTransfer:Zone:CONFERENCE_72 [J]
Zone,Meter,Heating:EnergyTransfer:Zone:CONFERENCE_72 [J]
Zone,Meter,General:Heating:EnergyTransfer:Zone:CONFERENCE_72 [J]
Zone,Meter,Cooling:EnergyTransfer:Zone:CONFERENCE_72 [J]
Zone,Meter,General:Cooling:EnergyTransfer:Zone:CONFERENCE_72 [J]
Zone,Meter,EnergyTransfer:Zone:MECHANICAL_72 [J]
Zone,Meter,Heating:EnergyTransfer:Zone:MECHANICAL_72 [J]
Zone,Meter,General:Heating:EnergyTransfer:Zone:MECHANICAL_72 [J]
Zone,Meter,Cooling:EnergyTransfer:Zone:MECHANICAL_72 [J]
Zone,Meter,General:Cooling:EnergyTransfer:Zone:MECHANICAL_72 [J]
Zone,Meter,EnergyTransfer:Zone:OFFICE_OPEN_72 [J]
Zone,Meter,Heating:EnergyTransfer:Zone:OFFICE_OPEN_72 [J]
Zone,Meter,General:Heating:EnergyTransfer:Zone:OFFICE_OPEN_72 [J]
Zone,Meter,Cooling:EnergyTransfer:Zone:OFFICE_OPEN_72 [J]
Zone,Meter,General:Cooling:EnergyTransfer:Zone:OFFICE_OPEN_72 [J]
Zone,Meter,EnergyTransfer:Zone:CONFERENCE_73 [J]
Zone,Meter,Heating:EnergyTransfer:Zone:CONFERENCE_73 [J]
Zone,Meter,General:Heating:EnergyTransfer:Zone:CONFERENCE_73 [J]
Zone,Meter,Cooling:EnergyTransfer:Zone:CONFERENCE_73 [J]
Zone,Meter,General:Cooling:EnergyTransfer:Zone:CONFERENCE_73 [J]
Zone,Meter,EnergyTransfer:Zone:BREAK_ROOM_73 [J]
Zone,Meter,Heating:EnergyTransfer:Zone:BREAK_ROOM_73 [J]
Zone,Meter,General:Heating:EnergyTransfer:Zone:BREAK_ROOM_73 [J]
Zone,Meter,Cooling:EnergyTransfer:Zone:BREAK_ROOM_73 [J]
Zone,Meter,General:Cooling:EnergyTransfer:Zone:BREAK_ROOM_73 [J]
Zone,Meter,EnergyTransfer:Zone:OFFICE_PRIVATE_73 [J]
Zone,Meter,Heating:EnergyTransfer:Zone:OFFICE_PRIVATE_73 [J]
Zone,Meter,General:Heating:EnergyTransfer:Zone:OFFICE_PRIVATE_73 [J]
Zone,Meter,Cooling:EnergyTransfer:Zone:OFFICE_PRIVATE_73 [J]
Zone,Meter,General:Cooling:EnergyTransfer:Zone:OFFICE_PRIVATE_73 [J]
Zone,Meter,EnergyTransfer:Zone:STORAGE_73 [J]
Zone,Meter,Heating:EnergyTransfer:Zone:STORAGE_73 [J]
Zone,Meter,General:Heating:EnergyTransfer:Zone:STORAGE_73 [J]
Zone,Meter,Cooling:EnergyTransfer:Zone:STORAGE_73 [J]
Zone,Meter,General:Cooling:EnergyTransfer:Zone:STORAGE_73 [J]
Zone,Meter,EnergyTransfer:Zone:CONFERENCE_74 [J]
Zone,Meter,Heating:EnergyTransfer:Zone:CONFERENCE_74 [J]
Zone,Meter,General:Heating:EnergyTransfer:Zone:CONFERENCE_74 [J]
Zone,Meter,Cooling:EnergyTransfer:Zone:CONFERENCE_74 [J]
Zone,Meter,General:Cooling:EnergyTransfer:Zone:CONFERENCE_74 [J]
Zone,Meter,EnergyTransfer:Zone:MECHANICAL_74 [J]
Zone,Meter,Heating:EnergyTransfer:Zone:MECHANICAL_74 [J]
Zone,Meter,General:Heating:EnergyTransfer:Zone:MECHANICAL_74 [J]
Zone,Meter,Cooling:EnergyTransfer:Zone:MECHANICAL_74 [J]
Zone,Meter,General:Cooling:EnergyTransfer:Zone:MECHANICAL_74 [J]
Zone,Meter,EnergyTransfer:Zone:OFFICE_PRIVATE_74 [J]
Zone,Meter,Heating:EnergyTransfer:Zone:OFFICE_PRIVATE_74 [J]
Zone,Meter,General:Heating:EnergyTransfer:Zone:OFFICE_PRIVATE_74 [J]
Zone,Meter,Cooling:EnergyTransfer:Zone:OFFICE_PRIVATE_74 [J]
Zone,Meter,General:Cooling:EnergyTransfer:Zone:OFFICE_PRIVATE_74 [J]
Zone,Meter,EnergyTransfer:Zone:STORAGE_74 [J]
Zone,Meter,Heating:EnergyTransfer:Zone:STORAGE_74 [J]
Zone,Meter,General:Heating:EnergyTransfer:Zone:STORAGE_74 [J]
Zone,Meter,Cooling:EnergyTransfer:Zone:STORAGE_74 [J]
Zone,Meter,General:Cooling:EnergyTransfer:Zone:STORAGE_74 [J]
Zone,Meter,EnergyTransfer:Zone:LOBBY_75 [J]
Zone,Meter,Heating:EnergyTransfer:Zone:LOBBY_75 [J]
Zone,Meter,General:Heating:EnergyTransfer:Zone:LOBBY_75 [J]
Zone,Meter,Cooling:EnergyTransfer:Zone:LOBBY_75 [J]
Zone,Meter,General:Cooling:EnergyTransfer:Zone:LOBBY_75 [J]
Zone,Meter,EnergyTransfer:Zone:BREAK_ROOM_75 [J]
Zone,Meter,Heating:EnergyTransfer:Zone:BREAK_ROOM_75 [J]
Zone,Meter,General:Heating:EnergyTransfer:Zone:BREAK_ROOM_75 [J]
Zone,Meter,Cooling:EnergyTransfer:Zone:BREAK_ROOM_75 [J]
Zone,Meter,General:Cooling:EnergyTransfer:Zone:BREAK_ROOM_75 [J]
Zone,Meter,EnergyTransfer:Zone:MECHANICAL_75 [J]
Zone,Meter,Heating:EnergyTransfer:Zone:MECHANICAL_75 [J]
Zone,Meter,General:Heating:EnergyTransfer:Zone:MECHANICAL_75 [J]
Zone,Meter,Cooling:EnergyTransfer:Zone:MECHANICAL_75 [J]
Zone,Meter,General:Cooling:EnergyTransfer:Zone:MECHANICAL_75 [J]
Zone,Meter,EnergyTransfer:Zone:OFFICE_OPEN_75 [J]
Zone,Meter,Heating:EnergyTransfer:Zone:OFFICE_OPEN_75 [J]
Zone,Meter,General:Heating:EnergyTransfer:Zone:OFFICE_OPEN_75 [J]
Zone,Meter,Cooling:EnergyTransfer:Zone:OFFICE_OPEN_75 [J]
Zone,Meter,General:Cooling:EnergyTransfer:Zone:OFFICE_OPEN_75 [J]
Zone,Meter,EnergyTransfer:Zone:OFFICE_PRIVATE_75 [J]
Zone,Meter,Heating:EnergyTransfer:Zone:OFFICE_PRIVATE_75 [J]
Zone,Meter,General:Heating:EnergyTransfer:Zone:OFFICE_PRIVATE_75 [J]
Zone,Meter,Cooling:EnergyTransfer:Zone:OFFICE_PRIVATE_75 [J]
Zone,Meter,General:Cooling:EnergyTransfer:Zone:OFFICE_PRIVATE_75 [J]
Zone,Meter,EnergyTransfer:Zone:LOBBY_76 [J]
Zone,Meter,Heating:EnergyTransfer:Zone:LOBBY_76 [J]
Zone,Meter,General:Heating:EnergyTransfer:Zone:LOBBY_76 [J]
Zone,Meter,Cooling:EnergyTransfer:Zone:LOBBY_76 [J]
Zone,Meter,General:Cooling:EnergyTransfer:Zone:LOBBY_76 [J]
Zone,Meter,EnergyTransfer:Zone:CONFERENCE_76 [J]
Zone,Meter,Heating:EnergyTransfer:Zone:CONFERENCE_76 [J]
Zone,Meter,General:Heating:EnergyTransfer:Zone:CONFERENCE_76 [J]
Zone,Meter,Cooling:EnergyTransfer:Zone:CONFERENCE_76 [J]
Zone,Meter,General:Cooling:EnergyTransfer:Zone:CONFERENCE_76 [J]
Zone,Meter,EnergyTransfer:Zone:BREAK_ROOM_76 [J]
Zone,Meter,Heating:EnergyTransfer:Zone:BREAK_ROOM_76 [J]
Zone,Meter,General:Heating:EnergyTransfer:Zone:BREAK_ROOM_76 [J]
Zone,Meter,Cooling:EnergyTransfer:Zone:BREAK_ROOM_76 [J]
Zone,Meter,General:Cooling:EnergyTransfer:Zone:BREAK_ROOM_76 [J]
Zone,Meter,EnergyTransfer:Zone:MECHANICAL_76 [J]
Zone,Meter,Heating:EnergyTransfer:Zone:MECHANICAL_76 [J]
Zone,Meter,General:Heating:EnergyTransfer:Zone:MECHANICAL_76 [J]
Zone,Meter,Cooling:EnergyTransfer:Zone:MECHANICAL_76 [J]
Zone,Meter,General:Cooling:EnergyTransfer:Zone:MECHANICAL_76 [J]
Zone,Meter,EnergyTransfer:Zone:STORAGE_76 [J]
Zone,Meter,Heating:EnergyTransfer:Zone:STORAGE_76 [J]
Zone,Meter,General:Heating:EnergyTransfer:Zone:STORAGE_76 [J]
Zone,Meter,Cooling:EnergyTransfer:Zone:STORAGE_76 [J]
Zone,Meter,General:Cooling:EnergyTransfer:Zone:STORAGE_76 [J]
Zone,Meter,EnergyTransfer:Zone:LOBBY_77 [J]
Zone,Meter,Heating:EnergyTransfer:Zone:LOBBY_77 [J]
Zone,Meter,General:Heating:EnergyTransfer:Zone:LOBBY_77 [J]
Zone,Meter,Cooling:EnergyTransfer:Zone:LOBBY_77 [J]
Zone,Meter,General:Cooling:EnergyTransfer:Zone:LOBBY_77 [J]
Zone,Meter,EnergyTransfer:Zone:BREAK_ROOM_77 [J]
Zone,Meter,Heating:EnergyTransfer:Zone:BREAK_ROOM_77 [J]
Zone,Meter,General:Heating:EnergyTransfer:Zone:BREAK_ROOM_77 [J]
Zone,Meter,Cooling:EnergyTransfer:Zone:BREAK_ROOM_77 [J]
Zone,Meter,General:Cooling:EnergyTransfer:Zone:BREAK_ROOM_77 [J]
Zone,Meter,EnergyTransfer:Zone:MECHANICAL_77 [J]
Zone,Meter,Heating:EnergyTransfer:Zone:MECHANICAL_77 [J]
Zone,Meter,General:Heating:EnergyTransfer:Zone:MECHANICAL_77 [J]
Zone,Meter,Cooling:EnergyTransfer:Zone:MECHANICAL_77 [J]
Zone,Meter,General:Cooling:EnergyTransfer:Zone:MECHANICAL_77 [J]
Zone,Meter,EnergyTransfer:Zone:OFFICE_PRIVATE_77 [J]
Zone,Meter,Heating:EnergyTransfer:Zone:OFFICE_PRIVATE_77 [J]
Zone,Meter,General:Heating:EnergyTransfer:Zone:OFFICE_PRIVATE_77 [J]
Zone,Meter,Cooling:EnergyTransfer:Zone:OFFICE_PRIVATE_77 [J]
Zone,Meter,General:Cooling:EnergyTransfer:Zone:OFFICE_PRIVATE_77 [J]
Zone,Meter,EnergyTransfer:Zone:STORAGE_77 [J]
Zone,Meter,Heating:EnergyTransfer:Zone:STORAGE_77 [J]
Zone,Meter,General:Heating:EnergyTransfer:Zone:STORAGE_77 [J]
Zone,Meter,Cooling:EnergyTransfer:Zone:STORAGE_77 [J]
Zone,Meter,General:Cooling:EnergyTransfer:Zone:STORAGE_77 [J]
Zone,Meter,EnergyTransfer:Zone:LOBBY_78 [J]
Zone,Meter,Heating:EnergyTransfer:Zone:LOBBY_78 [J]
Zone,Meter,General:Heating:EnergyTransfer:Zone:LOBBY_78 [J]
Zone,Meter,Cooling:EnergyTransfer:Zone:LOBBY_78 [J]
Zone,Meter,General:Cooling:EnergyTransfer:Zone:LOBBY_78 [J]
Zone,Meter,EnergyTransfer:Zone:CONFERENCE_78 [J]
Zone,Meter,Heating:EnergyTransfer:Zone:CONFERENCE_78 [J]
Zone,Meter,General:Heating:EnergyTransfer:Zone:CONFERENCE_78 [J]
Zone,Meter,Cooling:EnergyTransfer:Zone:CONFERENCE_78 [J]
Zone,Meter,General:Cooling:EnergyTransfer:Zone:CONFERENCE_78 [J]
Zone,Meter,EnergyTransfer:Zone:MECHANICAL_78 [J]
Zone,Meter,Heating:EnergyTransfer:Zone:MECHANICAL_78 [J]
Zone,Meter,General:Heating:EnergyTransfer:Zone:MECHANICAL_78 [J]
Zone,Meter,Cooling:EnergyTransfer:Zone:MECHANICAL_78 [J]
Zone,Meter,General:Cooling:EnergyTransfer:Zone:MECHANICAL_78 [J]
Zone,Meter,EnergyTransfer:Zone:STORAGE_78 [J]
Zone,Meter,Heating:EnergyTransfer:Zone:STORAGE_78 [J]
Zone,Meter,General:Heating:EnergyTransfer:Zone:STORAGE_78 [J]
Zone,Meter,Cooling:EnergyTransfer:Zone:STORAGE_78 [J]
Zone,Meter,General:Cooling:EnergyTransfer:Zone:STORAGE_78 [J]
Zone,Meter,EnergyTransfer:Zone:CONFERENCE_79 [J]
Zone,Meter,Heating:EnergyTransfer:Zone:CONFERENCE_79 [J]
Zone,Meter,General:Heating:EnergyTransfer:Zone:CONFERENCE_79 [J]
Zone,Meter,Cooling:EnergyTransfer:Zone:CONFERENCE_79 [J]
Zone,Meter,General:Cooling:EnergyTransfer:Zone:CONFERENCE_79 [J]
Zone,Meter,EnergyTransfer:Zone:BREAK_ROOM_79 [J]
Zone,Meter,Heating:EnergyTransfer:Zone:BREAK_ROOM_79 [J]
Zone,Meter,General:Heating:EnergyTransfer:Zone:BREAK_ROOM_79 [J]
Zone,Meter,Cooling:EnergyTransfer:Zone:BREAK_ROOM_79 [J]
Zone,Meter,General:Cooling:EnergyTransfer:Zone:BREAK_ROOM_79 [J]
Zone,Meter,EnergyTransfer:Zone:OFFICE_OPEN_79 [J]
Zone,Meter,Heating:EnergyTransfer:Zone:OFFICE_OPEN_79 [J]
Zone,Meter,General:Heating:EnergyTransfer:Zone:OFFICE_OPEN_79 [J]
Zone,Meter,Cooling:EnergyTransfer:Zone:OFFICE_OPEN_79 [J]
Zone,Meter,General:Cooling:EnergyTransfer:Zone:OFFICE_OPEN_79 [J]
Zone,Meter,EnergyTransfer:Zone:STORAGE_79 [J]
Zone,Meter,Heating:EnergyTransfer:Zone:STORAGE_79 [J]
Zone,Meter,General:Heating:EnergyTransfer:Zone:STORAGE_79 [J]
Zone,Meter,Cooling:EnergyTransfer:Zone:STORAGE_79 [J]
Zone,Meter,General:Cooling:EnergyTransfer:Zone:STORAGE_79 [J]
Zone,Meter,EnergyTransfer:Zone:LOBBY_80 [J]
Zone,Meter,Heating:EnergyTransfer:Zone:LOBBY_80 [J]
Zone,Meter,General:Heating:EnergyTransfer:Zone:LOBBY_80 [J]
Zone,Meter,Cooling:EnergyTransfer:Zone:LOBBY_80 [J]
Zone,Meter,General:Cooling:EnergyTransfer:Zone:LOBBY_80 [J]
Zone,Meter,EnergyTransfer:Zone:CONFERENCE_80 [J]
Zone,Meter,Heating:EnergyTransfer:Zone:CONFERENCE_80 [J]
Zone,Meter,General:Heating:EnergyTransfer:Zone:CONFERENCE_80 [J]
Zone,Meter,Cooling:EnergyTransfer:Zone:CONFERENCE_80 [J]
Zone,Meter,General:Cooling:EnergyTransfer:Zone:CONFERENCE_80 [J]
Zone,Meter,EnergyTransfer:Zone:BREAK_ROOM_80 [J]
Zone,Meter,Heating:EnergyTransfer:Zone:BREAK_ROOM_80 [J]
Zone,Meter,General:Heating:EnergyTransfer:Zone:BREAK_ROOM_80 [J]
Zone,Meter,Cooling:EnergyTransfer:Zone:BREAK_ROOM_80 [J]
Zone,Meter,General:Cooling:EnergyTransfer:Zone:BREAK_ROOM_80 [J]
Zone,Meter,EnergyTransfer:Zone:MECHANICAL_80 [J]
Zone,Meter,Heating:EnergyTransfer:Zone:MECHANICAL_80 [J]
Zone,Meter,General:Heating:EnergyTransfer:Zone:MECHANICAL_80 [J]
Zone,Meter,Cooling:EnergyTransfer:Zone:MECHANICAL_80 [J]
Zone,Meter,General:Cooling:EnergyTransfer:Zone:MECHANICAL_80 [J]
Zone,Meter,EnergyTransfer:Zone:STORAGE_80 [J]
Zone,Meter,Heating:EnergyTransfer:Zone:STORAGE_80 [J]
Zone,Meter,General:Heating:EnergyTransfer:Zone:STORAGE_80 [J]
Zone,Meter,Cooling:EnergyTransfer:Zone:STORAGE_80 [J]
Zone,Meter,General:Cooling:EnergyTransfer:Zone:STORAGE_80 [J]
Zone,Meter,EnergyTransfer:Zone:LOBBY_81 [J]
Zone,Meter,Heating:EnergyTransfer:Zone:LOBBY_81 [J]
Zone,Meter,General:Heating:EnergyTransfer:Zone:LOBBY_81 [J]
Zone,Meter,Cooling:EnergyTransfer:Zone:LOBBY_81 [J]
Zone,Meter,General:Cooling:EnergyTransfer:Zone:LOBBY_81 [J]
Zone,Meter,EnergyTransfer:Zone:BREAK_ROOM_81 [J]
Zone,Meter,Heating:EnergyTransfer:Zone:BREAK_ROOM_81 [J]
Zone,Meter,General:Heating:EnergyTransfer:Zone:BREAK_ROOM_81 [J]
Zone,Meter,Cooling:EnergyTransfer:Zone:BREAK_ROOM_81 [J]
Zone,Meter,General:Cooling:EnergyTransfer:Zone:BREAK_ROOM_81 [J]
Zone,Meter,EnergyTransfer:Zone:MECHANICAL_81 [J]
Zone,Meter,Heating:EnergyTransfer:Zone:MECHANICAL_81 [J]
Zone,Meter,General:Heating:EnergyTransfer:Zone:MECHANICAL_81 [J]
Zone,Meter,Cooling:EnergyTransfer:Zone:MECHANICAL_81 [J]
Zone,Meter,General:Cooling:EnergyTransfer:Zone:MECHANICAL_81 [J]
Zone,Meter,EnergyTransfer:Zone:OFFICE_PRIVATE_81 [J]
Zone,Meter,Heating:EnergyTransfer:Zone:OFFICE_PRIVATE_81 [J]
Zone,Meter,General:Heating:EnergyTransfer:Zone:OFFICE_PRIVATE_81 [J]
Zone,Meter,Cooling:EnergyTransfer:Zone:OFFICE_PRIVATE_81 [J]
Zone,Meter,General:Cooling:EnergyTransfer:Zone:OFFICE_PRIVATE_81 [J]
Zone,Meter,EnergyTransfer:HVAC [J]
Zone,Meter,HeatingCoils:EnergyTransfer [J]
Zone,Meter,Electricity:HVAC [J]
Zone,Meter,Heating:Electricity [J]
Zone,Meter,General:Heating:Electricity [J]
Zone,Meter,Fans:Electricity [J]
Zone,Meter,General:Fans:Electricity [J]
Zone,Meter,CoolingCoils:EnergyTransfer [J]
Zone,Meter,Cooling:Electricity [J]
Zone,Meter,General:Cooling:Electricity [J]
Zone,Meter,ElectricityPurchased:Facility [J]
Zone,Meter,ElectricityPurchased:Plant [J]
Zone,Meter,Cogeneration:ElectricityPurchased [J]
Zone,Meter,General:Cogeneration:ElectricityPurchased [J]
Zone,Meter,ElectricitySurplusSold:Facility [J]
Zone,Meter,ElectricitySurplusSold:Plant [J]
Zone,Meter,Cogeneration:ElectricitySurplusSold [J]
Zone,Meter,General:Cogeneration:ElectricitySurplusSold [J]
Zone,Meter,ElectricityNet:Facility [J]
Zone,Meter,ElectricityNet:Plant [J]
Zone,Meter,Cogeneration:ElectricityNet [J]
Zone,Meter,General:Cogeneration:ElectricityNet [J]
Zone,Meter,Carbon Equivalent:Facility [kg]
Zone,Meter,CarbonEquivalentEmissions:Carbon Equivalent [kg]
