Program Version,EnergyPlus, Version 24.2.0-94a887817b, YMD=2025.11.02 18:16
! This file shows details about the branches, nodes, and other
! elements of the flow connections.
! This file is intended for use in "debugging" potential problems
! that may also be detected by the program, but may be more easily
! identified by "eye".
! This file is also intended to support software which draws a
! schematic diagram of the HVAC system.
! ===============================================================
! #Nodes,<Number of Unique Nodes>
 #Nodes,4202
! <Node>,<NodeNumber>,<Node Name>,<Node Fluid Type>,<# Times Node Referenced After Definition>
 Node,1,LOBBY_0_Z1_ADUOUTLET,Air,4
 Node,2,MECHANICAL_0_Z2_ADUOUTLET,Air,4
 Node,3,OFFICE_PRIVATE_0_Z3_ADUOUTLET,Air,4
 Node,4,STORAGE_0_Z4_ADUOUTLET,Air,4
 Node,5,LOBBY_1_Z5_ADUOUTLET,Air,4
 Node,6,CONFERENCE_1_Z6_ADUOUTLET,Air,4
 Node,7,BREAK_ROOM_1_Z7_ADUOUTLET,Air,4
 Node,8,OFFICE_PRIVATE_1_Z8_ADUOUTLET,Air,4
 Node,9,STORAGE_1_Z9_ADUOUTLET,Air,4
 Node,10,CONFERENCE_2_Z10_ADUOUTLET,Air,4
 Node,11,MECHANICAL_2_Z11_ADUOUTLET,Air,4
 Node,12,OFFICE_OPEN_2_Z12_ADUOUTLET,Air,4
 Node,13,LOBBY_3_Z13_ADUOUTLET,Air,4
 Node,14,CONFERENCE_3_Z14_ADUOUTLET,Air,4
 Node,15,BREAK_ROOM_3_Z15_ADUOUTLET,Air,4
 Node,16,MECHANICAL_3_Z16_ADUOUTLET,Air,4
 Node,17,OFFICE_OPEN_3_Z17_ADUOUTLET,Air,4
 Node,18,OFFICE_PRIVATE_3_Z18_ADUOUTLET,Air,4
 Node,19,STORAGE_3_Z19_ADUOUTLET,Air,4
 Node,20,LOBBY_4_Z20_ADUOUTLET,Air,4
 Node,21,BREAK_ROOM_4_Z21_ADUOUTLET,Air,4
 Node,22,MECHANICAL_4_Z22_ADUOUTLET,Air,4
 Node,23,OFFICE_OPEN_4_Z23_ADUOUTLET,Air,4
 Node,24,OFFICE_PRIVATE_4_Z24_ADUOUTLET,Air,4
 Node,25,CONFERENCE_5_Z25_ADUOUTLET,Air,4
 Node,26,MECHANICAL_5_Z26_ADUOUTLET,Air,4
 Node,27,OFFICE_OPEN_5_Z27_ADUOUTLET,Air,4
 Node,28,LOBBY_6_Z28_ADUOUTLET,Air,4
 Node,29,CONFERENCE_6_Z29_ADUOUTLET,Air,4
 Node,30,MECHANICAL_6_Z30_ADUOUTLET,Air,4
 Node,31,OFFICE_PRIVATE_6_Z31_ADUOUTLET,Air,4
 Node,32,STORAGE_6_Z32_ADUOUTLET,Air,4
 Node,33,LOBBY_7_Z33_ADUOUTLET,Air,4
 Node,34,CONFERENCE_7_Z34_ADUOUTLET,Air,4
 Node,35,MECHANICAL_7_Z35_ADUOUTLET,Air,4
 Node,36,OFFICE_OPEN_7_Z36_ADUOUTLET,Air,4
 Node,37,OFFICE_PRIVATE_7_Z37_ADUOUTLET,Air,4
 Node,38,STORAGE_7_Z38_ADUOUTLET,Air,4
 Node,39,LOBBY_8_Z39_ADUOUTLET,Air,4
 Node,40,MECHANICAL_8_Z40_ADUOUTLET,Air,4
 Node,41,BREAK_ROOM_9_Z41_ADUOUTLET,Air,4
 Node,42,OFFICE_OPEN_9_Z42_ADUOUTLET,Air,4
 Node,43,OFFICE_PRIVATE_9_Z43_ADUOUTLET,Air,4
 Node,44,STORAGE_9_Z44_ADUOUTLET,Air,4
 Node,45,CONFERENCE_10_Z45_ADUOUTLET,Air,4
 Node,46,BREAK_ROOM_10_Z46_ADUOUTLET,Air,4
 Node,47,OFFICE_PRIVATE_10_Z47_ADUOUTLET,Air,4
 Node,48,STORAGE_10_Z48_ADUOUTLET,Air,4
 Node,49,CONFERENCE_11_Z49_ADUOUTLET,Air,4
 Node,50,BREAK_ROOM_11_Z50_ADUOUTLET,Air,4
 Node,51,MECHANICAL_11_Z51_ADUOUTLET,Air,4
 Node,52,OFFICE_OPEN_11_Z52_ADUOUTLET,Air,4
 Node,53,OFFICE_PRIVATE_11_Z53_ADUOUTLET,Air,4
 Node,54,STORAGE_11_Z54_ADUOUTLET,Air,4
 Node,55,LOBBY_12_Z55_ADUOUTLET,Air,4
 Node,56,CONFERENCE_12_Z56_ADUOUTLET,Air,4
 Node,57,STORAGE_12_Z57_ADUOUTLET,Air,4
 Node,58,LOBBY_13_Z58_ADUOUTLET,Air,4
 Node,59,CONFERENCE_13_Z59_ADUOUTLET,Air,4
 Node,60,MECHANICAL_13_Z60_ADUOUTLET,Air,4
 Node,61,OFFICE_PRIVATE_13_Z61_ADUOUTLET,Air,4
 Node,62,STORAGE_13_Z62_ADUOUTLET,Air,4
 Node,63,LOBBY_14_Z63_ADUOUTLET,Air,4
 Node,64,CONFERENCE_14_Z64_ADUOUTLET,Air,4
 Node,65,BREAK_ROOM_14_Z65_ADUOUTLET,Air,4
 Node,66,OFFICE_OPEN_14_Z66_ADUOUTLET,Air,4
 Node,67,OFFICE_PRIVATE_14_Z67_ADUOUTLET,Air,4
 Node,68,CONFERENCE_15_Z68_ADUOUTLET,Air,4
 Node,69,BREAK_ROOM_15_Z69_ADUOUTLET,Air,4
 Node,70,MECHANICAL_15_Z70_ADUOUTLET,Air,4
 Node,71,OFFICE_PRIVATE_15_Z71_ADUOUTLET,Air,4
 Node,72,LOBBY_16_Z72_ADUOUTLET,Air,4
 Node,73,BREAK_ROOM_16_Z73_ADUOUTLET,Air,4
 Node,74,OFFICE_OPEN_16_Z74_ADUOUTLET,Air,4
 Node,75,OFFICE_PRIVATE_16_Z75_ADUOUTLET,Air,4
 Node,76,STORAGE_16_Z76_ADUOUTLET,Air,4
 Node,77,CONFERENCE_17_Z77_ADUOUTLET,Air,4
 Node,78,MECHANICAL_17_Z78_ADUOUTLET,Air,4
 Node,79,OFFICE_OPEN_17_Z79_ADUOUTLET,Air,4
 Node,80,OFFICE_PRIVATE_17_Z80_ADUOUTLET,Air,4
 Node,81,STORAGE_17_Z81_ADUOUTLET,Air,4
 Node,82,BREAK_ROOM_18_Z82_ADUOUTLET,Air,4
 Node,83,MECHANICAL_18_Z83_ADUOUTLET,Air,4
 Node,84,OFFICE_PRIVATE_18_Z84_ADUOUTLET,Air,4
 Node,85,STORAGE_18_Z85_ADUOUTLET,Air,4
 Node,86,LOBBY_19_Z86_ADUOUTLET,Air,4
 Node,87,BREAK_ROOM_19_Z87_ADUOUTLET,Air,4
 Node,88,OFFICE_OPEN_19_Z88_ADUOUTLET,Air,4
 Node,89,OFFICE_PRIVATE_19_Z89_ADUOUTLET,Air,4
 Node,90,STORAGE_19_Z90_ADUOUTLET,Air,4
 Node,91,LOBBY_20_Z91_ADUOUTLET,Air,4
 Node,92,CONFERENCE_20_Z92_ADUOUTLET,Air,4
 Node,93,BREAK_ROOM_20_Z93_ADUOUTLET,Air,4
 Node,94,MECHANICAL_20_Z94_ADUOUTLET,Air,4
 Node,95,OFFICE_PRIVATE_20_Z95_ADUOUTLET,Air,4
 Node,96,LOBBY_21_Z96_ADUOUTLET,Air,4
 Node,97,CONFERENCE_21_Z97_ADUOUTLET,Air,4
 Node,98,BREAK_ROOM_21_Z98_ADUOUTLET,Air,4
 Node,99,MECHANICAL_21_Z99_ADUOUTLET,Air,4
 Node,100,OFFICE_PRIVATE_21_Z100_ADUOUTLET,Air,4
 Node,101,STORAGE_21_Z101_ADUOUTLET,Air,4
 Node,102,CONFERENCE_22_Z102_ADUOUTLET,Air,4
 Node,103,MECHANICAL_22_Z103_ADUOUTLET,Air,4
 Node,104,OFFICE_OPEN_22_Z104_ADUOUTLET,Air,4
 Node,105,OFFICE_PRIVATE_22_Z105_ADUOUTLET,Air,4
 Node,106,STORAGE_22_Z106_ADUOUTLET,Air,4
 Node,107,LOBBY_23_Z107_ADUOUTLET,Air,4
 Node,108,BREAK_ROOM_23_Z108_ADUOUTLET,Air,4
 Node,109,MECHANICAL_23_Z109_ADUOUTLET,Air,4
 Node,110,OFFICE_OPEN_23_Z110_ADUOUTLET,Air,4
 Node,111,OFFICE_PRIVATE_23_Z111_ADUOUTLET,Air,4
 Node,112,STORAGE_23_Z112_ADUOUTLET,Air,4
 Node,113,BREAK_ROOM_25_Z113_ADUOUTLET,Air,4
 Node,114,OFFICE_OPEN_25_Z114_ADUOUTLET,Air,4
 Node,115,OFFICE_PRIVATE_25_Z115_ADUOUTLET,Air,4
 Node,116,STORAGE_25_Z116_ADUOUTLET,Air,4
 Node,117,LOBBY_26_Z117_ADUOUTLET,Air,4
 Node,118,CONFERENCE_26_Z118_ADUOUTLET,Air,4
 Node,119,BREAK_ROOM_26_Z119_ADUOUTLET,Air,4
 Node,120,MECHANICAL_26_Z120_ADUOUTLET,Air,4
 Node,121,OFFICE_OPEN_26_Z121_ADUOUTLET,Air,4
 Node,122,STORAGE_26_Z122_ADUOUTLET,Air,4
 Node,123,LOBBY_27_Z123_ADUOUTLET,Air,4
 Node,124,CONFERENCE_27_Z124_ADUOUTLET,Air,4
 Node,125,MECHANICAL_27_Z125_ADUOUTLET,Air,4
 Node,126,OFFICE_OPEN_27_Z126_ADUOUTLET,Air,4
 Node,127,OFFICE_PRIVATE_27_Z127_ADUOUTLET,Air,4
 Node,128,CONFERENCE_28_Z128_ADUOUTLET,Air,4
 Node,129,BREAK_ROOM_28_Z129_ADUOUTLET,Air,4
 Node,130,MECHANICAL_28_Z130_ADUOUTLET,Air,4
 Node,131,OFFICE_PRIVATE_28_Z131_ADUOUTLET,Air,4
 Node,132,LOBBY_29_Z132_ADUOUTLET,Air,4
 Node,133,CONFERENCE_29_Z133_ADUOUTLET,Air,4
 Node,134,MECHANICAL_29_Z134_ADUOUTLET,Air,4
 Node,135,OFFICE_OPEN_29_Z135_ADUOUTLET,Air,4
 Node,136,OFFICE_PRIVATE_29_Z136_ADUOUTLET,Air,4
 Node,137,STORAGE_29_Z137_ADUOUTLET,Air,4
 Node,138,CONFERENCE_30_Z138_ADUOUTLET,Air,4
 Node,139,OFFICE_PRIVATE_30_Z139_ADUOUTLET,Air,4
 Node,140,STORAGE_30_Z140_ADUOUTLET,Air,4
 Node,141,CONFERENCE_31_Z141_ADUOUTLET,Air,4
 Node,142,OFFICE_OPEN_31_Z142_ADUOUTLET,Air,4
 Node,143,STORAGE_31_Z143_ADUOUTLET,Air,4
 Node,144,LOBBY_32_Z144_ADUOUTLET,Air,4
 Node,145,BREAK_ROOM_32_Z145_ADUOUTLET,Air,4
 Node,146,MECHANICAL_32_Z146_ADUOUTLET,Air,4
 Node,147,OFFICE_PRIVATE_32_Z147_ADUOUTLET,Air,4
 Node,148,STORAGE_32_Z148_ADUOUTLET,Air,4
 Node,149,CONFERENCE_33_Z149_ADUOUTLET,Air,4
 Node,150,BREAK_ROOM_33_Z150_ADUOUTLET,Air,4
 Node,151,OFFICE_PRIVATE_33_Z151_ADUOUTLET,Air,4
 Node,152,STORAGE_33_Z152_ADUOUTLET,Air,4
 Node,153,CONFERENCE_34_Z153_ADUOUTLET,Air,4
 Node,154,BREAK_ROOM_34_Z154_ADUOUTLET,Air,4
 Node,155,MECHANICAL_34_Z155_ADUOUTLET,Air,4
 Node,156,OFFICE_PRIVATE_34_Z156_ADUOUTLET,Air,4
 Node,157,STORAGE_34_Z157_ADUOUTLET,Air,4
 Node,158,LOBBY_35_Z158_ADUOUTLET,Air,4
 Node,159,CONFERENCE_35_Z159_ADUOUTLET,Air,4
 Node,160,BREAK_ROOM_35_Z160_ADUOUTLET,Air,4
 Node,161,MECHANICAL_35_Z161_ADUOUTLET,Air,4
 Node,162,OFFICE_OPEN_35_Z162_ADUOUTLET,Air,4
 Node,163,OFFICE_PRIVATE_35_Z163_ADUOUTLET,Air,4
 Node,164,STORAGE_35_Z164_ADUOUTLET,Air,4
 Node,165,CONFERENCE_36_Z165_ADUOUTLET,Air,4
 Node,166,MECHANICAL_36_Z166_ADUOUTLET,Air,4
 Node,167,CONFERENCE_37_Z167_ADUOUTLET,Air,4
 Node,168,MECHANICAL_37_Z168_ADUOUTLET,Air,4
 Node,169,OFFICE_PRIVATE_37_Z169_ADUOUTLET,Air,4
 Node,170,STORAGE_37_Z170_ADUOUTLET,Air,4
 Node,171,BREAK_ROOM_38_Z171_ADUOUTLET,Air,4
 Node,172,OFFICE_PRIVATE_38_Z172_ADUOUTLET,Air,4
 Node,173,BREAK_ROOM_39_Z173_ADUOUTLET,Air,4
 Node,174,MECHANICAL_39_Z174_ADUOUTLET,Air,4
 Node,175,OFFICE_OPEN_39_Z175_ADUOUTLET,Air,4
 Node,176,OFFICE_PRIVATE_39_Z176_ADUOUTLET,Air,4
 Node,177,STORAGE_39_Z177_ADUOUTLET,Air,4
 Node,178,LOBBY_40_Z178_ADUOUTLET,Air,4
 Node,179,CONFERENCE_40_Z179_ADUOUTLET,Air,4
 Node,180,BREAK_ROOM_40_Z180_ADUOUTLET,Air,4
 Node,181,OFFICE_PRIVATE_40_Z181_ADUOUTLET,Air,4
 Node,182,STORAGE_40_Z182_ADUOUTLET,Air,4
 Node,183,MECHANICAL_41_Z183_ADUOUTLET,Air,4
 Node,184,OFFICE_PRIVATE_41_Z184_ADUOUTLET,Air,4
 Node,185,STORAGE_41_Z185_ADUOUTLET,Air,4
 Node,186,CONFERENCE_42_Z186_ADUOUTLET,Air,4
 Node,187,MECHANICAL_42_Z187_ADUOUTLET,Air,4
 Node,188,OFFICE_OPEN_42_Z188_ADUOUTLET,Air,4
 Node,189,OFFICE_PRIVATE_42_Z189_ADUOUTLET,Air,4
 Node,190,STORAGE_42_Z190_ADUOUTLET,Air,4
 Node,191,CONFERENCE_43_Z191_ADUOUTLET,Air,4
 Node,192,OFFICE_OPEN_43_Z192_ADUOUTLET,Air,4
 Node,193,OFFICE_PRIVATE_43_Z193_ADUOUTLET,Air,4
 Node,194,STORAGE_43_Z194_ADUOUTLET,Air,4
 Node,195,LOBBY_44_Z195_ADUOUTLET,Air,4
 Node,196,OFFICE_PRIVATE_44_Z196_ADUOUTLET,Air,4
 Node,197,STORAGE_44_Z197_ADUOUTLET,Air,4
 Node,198,LOBBY_45_Z198_ADUOUTLET,Air,4
 Node,199,CONFERENCE_45_Z199_ADUOUTLET,Air,4
 Node,200,BREAK_ROOM_45_Z200_ADUOUTLET,Air,4
 Node,201,MECHANICAL_45_Z201_ADUOUTLET,Air,4
 Node,202,STORAGE_45_Z202_ADUOUTLET,Air,4
 Node,203,BREAK_ROOM_46_Z203_ADUOUTLET,Air,4
 Node,204,OFFICE_OPEN_46_Z204_ADUOUTLET,Air,4
 Node,205,STORAGE_46_Z205_ADUOUTLET,Air,4
 Node,206,LOBBY_47_Z206_ADUOUTLET,Air,4
 Node,207,CONFERENCE_47_Z207_ADUOUTLET,Air,4
 Node,208,BREAK_ROOM_47_Z208_ADUOUTLET,Air,4
 Node,209,MECHANICAL_47_Z209_ADUOUTLET,Air,4
 Node,210,OFFICE_PRIVATE_47_Z210_ADUOUTLET,Air,4
 Node,211,STORAGE_47_Z211_ADUOUTLET,Air,4
 Node,212,LOBBY_48_Z212_ADUOUTLET,Air,4
 Node,213,CONFERENCE_48_Z213_ADUOUTLET,Air,4
 Node,214,BREAK_ROOM_48_Z214_ADUOUTLET,Air,4
 Node,215,MECHANICAL_48_Z215_ADUOUTLET,Air,4
 Node,216,OFFICE_OPEN_48_Z216_ADUOUTLET,Air,4
 Node,217,STORAGE_48_Z217_ADUOUTLET,Air,4
 Node,218,LOBBY_49_Z218_ADUOUTLET,Air,4
 Node,219,CONFERENCE_49_Z219_ADUOUTLET,Air,4
 Node,220,BREAK_ROOM_49_Z220_ADUOUTLET,Air,4
 Node,221,MECHANICAL_49_Z221_ADUOUTLET,Air,4
 Node,222,OFFICE_OPEN_49_Z222_ADUOUTLET,Air,4
 Node,223,OFFICE_PRIVATE_49_Z223_ADUOUTLET,Air,4
 Node,224,STORAGE_49_Z224_ADUOUTLET,Air,4
 Node,225,LOBBY_50_Z225_ADUOUTLET,Air,4
 Node,226,BREAK_ROOM_50_Z226_ADUOUTLET,Air,4
 Node,227,MECHANICAL_50_Z227_ADUOUTLET,Air,4
 Node,228,OFFICE_OPEN_50_Z228_ADUOUTLET,Air,4
 Node,229,OFFICE_PRIVATE_50_Z229_ADUOUTLET,Air,4
 Node,230,LOBBY_51_Z230_ADUOUTLET,Air,4
 Node,231,CONFERENCE_51_Z231_ADUOUTLET,Air,4
 Node,232,BREAK_ROOM_51_Z232_ADUOUTLET,Air,4
 Node,233,MECHANICAL_51_Z233_ADUOUTLET,Air,4
 Node,234,OFFICE_PRIVATE_51_Z234_ADUOUTLET,Air,4
 Node,235,STORAGE_51_Z235_ADUOUTLET,Air,4
 Node,236,LOBBY_52_Z236_ADUOUTLET,Air,4
 Node,237,CONFERENCE_52_Z237_ADUOUTLET,Air,4
 Node,238,MECHANICAL_52_Z238_ADUOUTLET,Air,4
 Node,239,OFFICE_OPEN_52_Z239_ADUOUTLET,Air,4
 Node,240,OFFICE_PRIVATE_52_Z240_ADUOUTLET,Air,4
 Node,241,STORAGE_52_Z241_ADUOUTLET,Air,4
 Node,242,CONFERENCE_53_Z242_ADUOUTLET,Air,4
 Node,243,MECHANICAL_53_Z243_ADUOUTLET,Air,4
 Node,244,OFFICE_OPEN_53_Z244_ADUOUTLET,Air,4
 Node,245,STORAGE_53_Z245_ADUOUTLET,Air,4
 Node,246,CONFERENCE_54_Z246_ADUOUTLET,Air,4
 Node,247,BREAK_ROOM_54_Z247_ADUOUTLET,Air,4
 Node,248,MECHANICAL_54_Z248_ADUOUTLET,Air,4
 Node,249,OFFICE_PRIVATE_54_Z249_ADUOUTLET,Air,4
 Node,250,STORAGE_54_Z250_ADUOUTLET,Air,4
 Node,251,LOBBY_55_Z251_ADUOUTLET,Air,4
 Node,252,BREAK_ROOM_55_Z252_ADUOUTLET,Air,4
 Node,253,MECHANICAL_55_Z253_ADUOUTLET,Air,4
 Node,254,OFFICE_PRIVATE_55_Z254_ADUOUTLET,Air,4
 Node,255,STORAGE_55_Z255_ADUOUTLET,Air,4
 Node,256,LOBBY_56_Z256_ADUOUTLET,Air,4
 Node,257,CONFERENCE_56_Z257_ADUOUTLET,Air,4
 Node,258,BREAK_ROOM_56_Z258_ADUOUTLET,Air,4
 Node,259,MECHANICAL_56_Z259_ADUOUTLET,Air,4
 Node,260,OFFICE_OPEN_56_Z260_ADUOUTLET,Air,4
 Node,261,OFFICE_PRIVATE_56_Z261_ADUOUTLET,Air,4
 Node,262,STORAGE_56_Z262_ADUOUTLET,Air,4
 Node,263,CONFERENCE_57_Z263_ADUOUTLET,Air,4
 Node,264,BREAK_ROOM_57_Z264_ADUOUTLET,Air,4
 Node,265,MECHANICAL_57_Z265_ADUOUTLET,Air,4
 Node,266,OFFICE_OPEN_57_Z266_ADUOUTLET,Air,4
 Node,267,OFFICE_PRIVATE_57_Z267_ADUOUTLET,Air,4
 Node,268,STORAGE_57_Z268_ADUOUTLET,Air,4
 Node,269,CONFERENCE_58_Z269_ADUOUTLET,Air,4
 Node,270,BREAK_ROOM_58_Z270_ADUOUTLET,Air,4
 Node,271,MECHANICAL_58_Z271_ADUOUTLET,Air,4
 Node,272,OFFICE_PRIVATE_58_Z272_ADUOUTLET,Air,4
 Node,273,STORAGE_58_Z273_ADUOUTLET,Air,4
 Node,274,LOBBY_59_Z274_ADUOUTLET,Air,4
 Node,275,CONFERENCE_59_Z275_ADUOUTLET,Air,4
 Node,276,MECHANICAL_59_Z276_ADUOUTLET,Air,4
 Node,277,OFFICE_OPEN_59_Z277_ADUOUTLET,Air,4
 Node,278,OFFICE_PRIVATE_59_Z278_ADUOUTLET,Air,4
 Node,279,STORAGE_59_Z279_ADUOUTLET,Air,4
 Node,280,CONFERENCE_60_Z280_ADUOUTLET,Air,4
 Node,281,BREAK_ROOM_60_Z281_ADUOUTLET,Air,4
 Node,282,MECHANICAL_60_Z282_ADUOUTLET,Air,4
 Node,283,OFFICE_PRIVATE_60_Z283_ADUOUTLET,Air,4
 Node,284,LOBBY_61_Z284_ADUOUTLET,Air,4
 Node,285,CONFERENCE_61_Z285_ADUOUTLET,Air,4
 Node,286,BREAK_ROOM_61_Z286_ADUOUTLET,Air,4
 Node,287,MECHANICAL_61_Z287_ADUOUTLET,Air,4
 Node,288,STORAGE_61_Z288_ADUOUTLET,Air,4
 Node,289,LOBBY_62_Z289_ADUOUTLET,Air,4
 Node,290,CONFERENCE_62_Z290_ADUOUTLET,Air,4
 Node,291,BREAK_ROOM_62_Z291_ADUOUTLET,Air,4
 Node,292,MECHANICAL_62_Z292_ADUOUTLET,Air,4
 Node,293,OFFICE_PRIVATE_62_Z293_ADUOUTLET,Air,4
 Node,294,STORAGE_62_Z294_ADUOUTLET,Air,4
 Node,295,LOBBY_63_Z295_ADUOUTLET,Air,4
 Node,296,CONFERENCE_63_Z296_ADUOUTLET,Air,4
 Node,297,MECHANICAL_63_Z297_ADUOUTLET,Air,4
 Node,298,OFFICE_PRIVATE_63_Z298_ADUOUTLET,Air,4
 Node,299,STORAGE_63_Z299_ADUOUTLET,Air,4
 Node,300,LOBBY_64_Z300_ADUOUTLET,Air,4
 Node,301,CONFERENCE_64_Z301_ADUOUTLET,Air,4
 Node,302,MECHANICAL_64_Z302_ADUOUTLET,Air,4
 Node,303,OFFICE_PRIVATE_64_Z303_ADUOUTLET,Air,4
 Node,304,STORAGE_64_Z304_ADUOUTLET,Air,4
 Node,305,LOBBY_65_Z305_ADUOUTLET,Air,4
 Node,306,BREAK_ROOM_65_Z306_ADUOUTLET,Air,4
 Node,307,MECHANICAL_65_Z307_ADUOUTLET,Air,4
 Node,308,OFFICE_OPEN_65_Z308_ADUOUTLET,Air,4
 Node,309,OFFICE_PRIVATE_65_Z309_ADUOUTLET,Air,4
 Node,310,STORAGE_65_Z310_ADUOUTLET,Air,4
 Node,311,LOBBY_66_Z311_ADUOUTLET,Air,4
 Node,312,BREAK_ROOM_66_Z312_ADUOUTLET,Air,4
 Node,313,MECHANICAL_66_Z313_ADUOUTLET,Air,4
 Node,314,OFFICE_OPEN_66_Z314_ADUOUTLET,Air,4
 Node,315,OFFICE_PRIVATE_66_Z315_ADUOUTLET,Air,4
 Node,316,STORAGE_66_Z316_ADUOUTLET,Air,4
 Node,317,MECHANICAL_67_Z317_ADUOUTLET,Air,4
 Node,318,OFFICE_PRIVATE_67_Z318_ADUOUTLET,Air,4
 Node,319,STORAGE_67_Z319_ADUOUTLET,Air,4
 Node,320,CONFERENCE_68_Z320_ADUOUTLET,Air,4
 Node,321,BREAK_ROOM_68_Z321_ADUOUTLET,Air,4
 Node,322,MECHANICAL_68_Z322_ADUOUTLET,Air,4
 Node,323,OFFICE_OPEN_68_Z323_ADUOUTLET,Air,4
 Node,324,STORAGE_68_Z324_ADUOUTLET,Air,4
 Node,325,LOBBY_69_Z325_ADUOUTLET,Air,4
 Node,326,CONFERENCE_69_Z326_ADUOUTLET,Air,4
 Node,327,OFFICE_OPEN_69_Z327_ADUOUTLET,Air,4
 Node,328,OFFICE_PRIVATE_69_Z328_ADUOUTLET,Air,4
 Node,329,STORAGE_69_Z329_ADUOUTLET,Air,4
 Node,330,CONFERENCE_70_Z330_ADUOUTLET,Air,4
 Node,331,BREAK_ROOM_70_Z331_ADUOUTLET,Air,4
 Node,332,MECHANICAL_70_Z332_ADUOUTLET,Air,4
 Node,333,OFFICE_OPEN_70_Z333_ADUOUTLET,Air,4
 Node,334,STORAGE_70_Z334_ADUOUTLET,Air,4
 Node,335,LOBBY_71_Z335_ADUOUTLET,Air,4
 Node,336,CONFERENCE_71_Z336_ADUOUTLET,Air,4
 Node,337,BREAK_ROOM_71_Z337_ADUOUTLET,Air,4
 Node,338,MECHANICAL_71_Z338_ADUOUTLET,Air,4
 Node,339,OFFICE_OPEN_71_Z339_ADUOUTLET,Air,4
 Node,340,CONFERENCE_72_Z340_ADUOUTLET,Air,4
 Node,341,MECHANICAL_72_Z341_ADUOUTLET,Air,4
 Node,342,OFFICE_OPEN_72_Z342_ADUOUTLET,Air,4
 Node,343,CONFERENCE_73_Z343_ADUOUTLET,Air,4
 Node,344,BREAK_ROOM_73_Z344_ADUOUTLET,Air,4
 Node,345,OFFICE_PRIVATE_73_Z345_ADUOUTLET,Air,4
 Node,346,STORAGE_73_Z346_ADUOUTLET,Air,4
 Node,347,CONFERENCE_74_Z347_ADUOUTLET,Air,4
 Node,348,MECHANICAL_74_Z348_ADUOUTLET,Air,4
 Node,349,OFFICE_PRIVATE_74_Z349_ADUOUTLET,Air,4
 Node,350,STORAGE_74_Z350_ADUOUTLET,Air,4
 Node,351,LOBBY_75_Z351_ADUOUTLET,Air,4
 Node,352,BREAK_ROOM_75_Z352_ADUOUTLET,Air,4
 Node,353,MECHANICAL_75_Z353_ADUOUTLET,Air,4
 Node,354,OFFICE_OPEN_75_Z354_ADUOUTLET,Air,4
 Node,355,OFFICE_PRIVATE_75_Z355_ADUOUTLET,Air,4
 Node,356,LOBBY_76_Z356_ADUOUTLET,Air,4
 Node,357,CONFERENCE_76_Z357_ADUOUTLET,Air,4
 Node,358,BREAK_ROOM_76_Z358_ADUOUTLET,Air,4
 Node,359,MECHANICAL_76_Z359_ADUOUTLET,Air,4
 Node,360,STORAGE_76_Z360_ADUOUTLET,Air,4
 Node,361,LOBBY_77_Z361_ADUOUTLET,Air,4
 Node,362,BREAK_ROOM_77_Z362_ADUOUTLET,Air,4
 Node,363,MECHANICAL_77_Z363_ADUOUTLET,Air,4
 Node,364,OFFICE_PRIVATE_77_Z364_ADUOUTLET,Air,4
 Node,365,STORAGE_77_Z365_ADUOUTLET,Air,4
 Node,366,LOBBY_78_Z366_ADUOUTLET,Air,4
 Node,367,CONFERENCE_78_Z367_ADUOUTLET,Air,4
 Node,368,MECHANICAL_78_Z368_ADUOUTLET,Air,4
 Node,369,STORAGE_78_Z369_ADUOUTLET,Air,4
 Node,370,CONFERENCE_79_Z370_ADUOUTLET,Air,4
 Node,371,BREAK_ROOM_79_Z371_ADUOUTLET,Air,4
 Node,372,OFFICE_OPEN_79_Z372_ADUOUTLET,Air,4
 Node,373,STORAGE_79_Z373_ADUOUTLET,Air,4
 Node,374,LOBBY_80_Z374_ADUOUTLET,Air,4
 Node,375,CONFERENCE_80_Z375_ADUOUTLET,Air,4
 Node,376,BREAK_ROOM_80_Z376_ADUOUTLET,Air,4
 Node,377,MECHANICAL_80_Z377_ADUOUTLET,Air,4
 Node,378,STORAGE_80_Z378_ADUOUTLET,Air,4
 Node,379,LOBBY_81_Z379_ADUOUTLET,Air,4
 Node,380,BREAK_ROOM_81_Z380_ADUOUTLET,Air,4
 Node,381,MECHANICAL_81_Z381_ADUOUTLET,Air,4
 Node,382,OFFICE_PRIVATE_81_Z382_ADUOUTLET,Air,4
 Node,383,LOBBY_0_Z1_SUPPLYINLET,Air,3
 Node,384,LOBBY_0_Z1_COOLC-HEATCNODE,Air,6
 Node,385,LOBBY_0_Z1_HEATC-FANNODE,Air,5
 Node,386,LOBBY_0_Z1_SUPPLYEQUIPMENTOUTLETNODE,Air,3
 Node,387,MECHANICAL_0_Z2_SUPPLYINLET,Air,3
 Node,388,MECHANICAL_0_Z2_COOLC-HEATCNODE,Air,6
 Node,389,MECHANICAL_0_Z2_HEATC-FANNODE,Air,5
 Node,390,MECHANICAL_0_Z2_SUPPLYEQUIPMENTOUTLETNODE,Air,3
 Node,391,OFFICE_PRIVATE_0_Z3_SUPPLYINLET,Air,3
 Node,392,OFFICE_PRIVATE_0_Z3_COOLC-HEATCNODE,Air,6
 Node,393,OFFICE_PRIVATE_0_Z3_HEATC-FANNODE,Air,5
 Node,394,OFFICE_PRIVATE_0_Z3_SUPPLYEQUIPMENTOUTLETNODE,Air,3
 Node,395,STORAGE_0_Z4_SUPPLYINLET,Air,3
 Node,396,STORAGE_0_Z4_COOLC-HEATCNODE,Air,6
 Node,397,STORAGE_0_Z4_HEATC-FANNODE,Air,5
 Node,398,STORAGE_0_Z4_SUPPLYEQUIPMENTOUTLETNODE,Air,3
 Node,399,LOBBY_1_Z5_SUPPLYINLET,Air,3
 Node,400,LOBBY_1_Z5_COOLC-HEATCNODE,Air,6
 Node,401,LOBBY_1_Z5_HEATC-FANNODE,Air,5
 Node,402,LOBBY_1_Z5_SUPPLYEQUIPMENTOUTLETNODE,Air,3
 Node,403,CONFERENCE_1_Z6_SUPPLYINLET,Air,3
 Node,404,CONFERENCE_1_Z6_COOLC-HEATCNODE,Air,6
 Node,405,CONFERENCE_1_Z6_HEATC-FANNODE,Air,5
 Node,406,CONFERENCE_1_Z6_SUPPLYEQUIPMENTOUTLETNODE,Air,3
 Node,407,BREAK_ROOM_1_Z7_SUPPLYINLET,Air,3
 Node,408,BREAK_ROOM_1_Z7_COOLC-HEATCNODE,Air,6
 Node,409,BREAK_ROOM_1_Z7_HEATC-FANNODE,Air,5
 Node,410,BREAK_ROOM_1_Z7_SUPPLYEQUIPMENTOUTLETNODE,Air,3
 Node,411,OFFICE_PRIVATE_1_Z8_SUPPLYINLET,Air,3
 Node,412,OFFICE_PRIVATE_1_Z8_COOLC-HEATCNODE,Air,6
 Node,413,OFFICE_PRIVATE_1_Z8_HEATC-FANNODE,Air,5
 Node,414,OFFICE_PRIVATE_1_Z8_SUPPLYEQUIPMENTOUTLETNODE,Air,3
 Node,415,STORAGE_1_Z9_SUPPLYINLET,Air,3
 Node,416,STORAGE_1_Z9_COOLC-HEATCNODE,Air,6
 Node,417,STORAGE_1_Z9_HEATC-FANNODE,Air,5
 Node,418,STORAGE_1_Z9_SUPPLYEQUIPMENTOUTLETNODE,Air,3
 Node,419,CONFERENCE_2_Z10_SUPPLYINLET,Air,3
 Node,420,CONFERENCE_2_Z10_COOLC-HEATCNODE,Air,6
 Node,421,CONFERENCE_2_Z10_HEATC-FANNODE,Air,5
 Node,422,CONFERENCE_2_Z10_SUPPLYEQUIPMENTOUTLETNODE,Air,3
 Node,423,MECHANICAL_2_Z11_SUPPLYINLET,Air,3
 Node,424,MECHANICAL_2_Z11_COOLC-HEATCNODE,Air,6
 Node,425,MECHANICAL_2_Z11_HEATC-FANNODE,Air,5
 Node,426,MECHANICAL_2_Z11_SUPPLYEQUIPMENTOUTLETNODE,Air,3
 Node,427,OFFICE_OPEN_2_Z12_SUPPLYINLET,Air,3
 Node,428,OFFICE_OPEN_2_Z12_COOLC-HEATCNODE,Air,6
 Node,429,OFFICE_OPEN_2_Z12_HEATC-FANNODE,Air,5
 Node,430,OFFICE_OPEN_2_Z12_SUPPLYEQUIPMENTOUTLETNODE,Air,3
 Node,431,LOBBY_3_Z13_SUPPLYINLET,Air,3
 Node,432,LOBBY_3_Z13_COOLC-HEATCNODE,Air,6
 Node,433,LOBBY_3_Z13_HEATC-FANNODE,Air,5
 Node,434,LOBBY_3_Z13_SUPPLYEQUIPMENTOUTLETNODE,Air,3
 Node,435,CONFERENCE_3_Z14_SUPPLYINLET,Air,3
 Node,436,CONFERENCE_3_Z14_COOLC-HEATCNODE,Air,6
 Node,437,CONFERENCE_3_Z14_HEATC-FANNODE,Air,5
 Node,438,CONFERENCE_3_Z14_SUPPLYEQUIPMENTOUTLETNODE,Air,3
 Node,439,BREAK_ROOM_3_Z15_SUPPLYINLET,Air,3
 Node,440,BREAK_ROOM_3_Z15_COOLC-HEATCNODE,Air,6
 Node,441,BREAK_ROOM_3_Z15_HEATC-FANNODE,Air,5
 Node,442,BREAK_ROOM_3_Z15_SUPPLYEQUIPMENTOUTLETNODE,Air,3
 Node,443,MECHANICAL_3_Z16_SUPPLYINLET,Air,3
 Node,444,MECHANICAL_3_Z16_COOLC-HEATCNODE,Air,6
 Node,445,MECHANICAL_3_Z16_HEATC-FANNODE,Air,5
 Node,446,MECHANICAL_3_Z16_SUPPLYEQUIPMENTOUTLETNODE,Air,3
 Node,447,OFFICE_OPEN_3_Z17_SUPPLYINLET,Air,3
 Node,448,OFFICE_OPEN_3_Z17_COOLC-HEATCNODE,Air,6
 Node,449,OFFICE_OPEN_3_Z17_HEATC-FANNODE,Air,5
 Node,450,OFFICE_OPEN_3_Z17_SUPPLYEQUIPMENTOUTLETNODE,Air,3
 Node,451,OFFICE_PRIVATE_3_Z18_SUPPLYINLET,Air,3
 Node,452,OFFICE_PRIVATE_3_Z18_COOLC-HEATCNODE,Air,6
 Node,453,OFFICE_PRIVATE_3_Z18_HEATC-FANNODE,Air,5
 Node,454,OFFICE_PRIVATE_3_Z18_SUPPLYEQUIPMENTOUTLETNODE,Air,3
 Node,455,STORAGE_3_Z19_SUPPLYINLET,Air,3
 Node,456,STORAGE_3_Z19_COOLC-HEATCNODE,Air,6
 Node,457,STORAGE_3_Z19_HEATC-FANNODE,Air,5
 Node,458,STORAGE_3_Z19_SUPPLYEQUIPMENTOUTLETNODE,Air,3
 Node,459,LOBBY_4_Z20_SUPPLYINLET,Air,3
 Node,460,LOBBY_4_Z20_COOLC-HEATCNODE,Air,6
 Node,461,LOBBY_4_Z20_HEATC-FANNODE,Air,5
 Node,462,LOBBY_4_Z20_SUPPLYEQUIPMENTOUTLETNODE,Air,3
 Node,463,BREAK_ROOM_4_Z21_SUPPLYINLET,Air,3
 Node,464,BREAK_ROOM_4_Z21_COOLC-HEATCNODE,Air,6
 Node,465,BREAK_ROOM_4_Z21_HEATC-FANNODE,Air,5
 Node,466,BREAK_ROOM_4_Z21_SUPPLYEQUIPMENTOUTLETNODE,Air,3
 Node,467,MECHANICAL_4_Z22_SUPPLYINLET,Air,3
 Node,468,MECHANICAL_4_Z22_COOLC-HEATCNODE,Air,6
 Node,469,MECHANICAL_4_Z22_HEATC-FANNODE,Air,5
 Node,470,MECHANICAL_4_Z22_SUPPLYEQUIPMENTOUTLETNODE,Air,3
 Node,471,OFFICE_OPEN_4_Z23_SUPPLYINLET,Air,3
 Node,472,OFFICE_OPEN_4_Z23_COOLC-HEATCNODE,Air,6
 Node,473,OFFICE_OPEN_4_Z23_HEATC-FANNODE,Air,5
 Node,474,OFFICE_OPEN_4_Z23_SUPPLYEQUIPMENTOUTLETNODE,Air,3
 Node,475,OFFICE_PRIVATE_4_Z24_SUPPLYINLET,Air,3
 Node,476,OFFICE_PRIVATE_4_Z24_COOLC-HEATCNODE,Air,6
 Node,477,OFFICE_PRIVATE_4_Z24_HEATC-FANNODE,Air,5
 Node,478,OFFICE_PRIVATE_4_Z24_SUPPLYEQUIPMENTOUTLETNODE,Air,3
 Node,479,CONFERENCE_5_Z25_SUPPLYINLET,Air,3
 Node,480,CONFERENCE_5_Z25_COOLC-HEATCNODE,Air,6
 Node,481,CONFERENCE_5_Z25_HEATC-FANNODE,Air,5
 Node,482,CONFERENCE_5_Z25_SUPPLYEQUIPMENTOUTLETNODE,Air,3
 Node,483,MECHANICAL_5_Z26_SUPPLYINLET,Air,3
 Node,484,MECHANICAL_5_Z26_COOLC-HEATCNODE,Air,6
 Node,485,MECHANICAL_5_Z26_HEATC-FANNODE,Air,5
 Node,486,MECHANICAL_5_Z26_SUPPLYEQUIPMENTOUTLETNODE,Air,3
 Node,487,OFFICE_OPEN_5_Z27_SUPPLYINLET,Air,3
 Node,488,OFFICE_OPEN_5_Z27_COOLC-HEATCNODE,Air,6
 Node,489,OFFICE_OPEN_5_Z27_HEATC-FANNODE,Air,5
 Node,490,OFFICE_OPEN_5_Z27_SUPPLYEQUIPMENTOUTLETNODE,Air,3
 Node,491,LOBBY_6_Z28_SUPPLYINLET,Air,3
 Node,492,LOBBY_6_Z28_COOLC-HEATCNODE,Air,6
 Node,493,LOBBY_6_Z28_HEATC-FANNODE,Air,5
 Node,494,LOBBY_6_Z28_SUPPLYEQUIPMENTOUTLETNODE,Air,3
 Node,495,CONFERENCE_6_Z29_SUPPLYINLET,Air,3
 Node,496,CONFERENCE_6_Z29_COOLC-HEATCNODE,Air,6
 Node,497,CONFERENCE_6_Z29_HEATC-FANNODE,Air,5
 Node,498,CONFERENCE_6_Z29_SUPPLYEQUIPMENTOUTLETNODE,Air,3
 Node,499,MECHANICAL_6_Z30_SUPPLYINLET,Air,3
 Node,500,MECHANICAL_6_Z30_COOLC-HEATCNODE,Air,6
 Node,501,MECHANICAL_6_Z30_HEATC-FANNODE,Air,5
 Node,502,MECHANICAL_6_Z30_SUPPLYEQUIPMENTOUTLETNODE,Air,3
 Node,503,OFFICE_PRIVATE_6_Z31_SUPPLYINLET,Air,3
 Node,504,OFFICE_PRIVATE_6_Z31_COOLC-HEATCNODE,Air,6
 Node,505,OFFICE_PRIVATE_6_Z31_HEATC-FANNODE,Air,5
 Node,506,OFFICE_PRIVATE_6_Z31_SUPPLYEQUIPMENTOUTLETNODE,Air,3
 Node,507,STORAGE_6_Z32_SUPPLYINLET,Air,3
 Node,508,STORAGE_6_Z32_COOLC-HEATCNODE,Air,6
 Node,509,STORAGE_6_Z32_HEATC-FANNODE,Air,5
 Node,510,STORAGE_6_Z32_SUPPLYEQUIPMENTOUTLETNODE,Air,3
 Node,511,LOBBY_7_Z33_SUPPLYINLET,Air,3
 Node,512,LOBBY_7_Z33_COOLC-HEATCNODE,Air,6
 Node,513,LOBBY_7_Z33_HEATC-FANNODE,Air,5
 Node,514,LOBBY_7_Z33_SUPPLYEQUIPMENTOUTLETNODE,Air,3
 Node,515,CONFERENCE_7_Z34_SUPPLYINLET,Air,3
 Node,516,CONFERENCE_7_Z34_COOLC-HEATCNODE,Air,6
 Node,517,CONFERENCE_7_Z34_HEATC-FANNODE,Air,5
 Node,518,CONFERENCE_7_Z34_SUPPLYEQUIPMENTOUTLETNODE,Air,3
 Node,519,MECHANICAL_7_Z35_SUPPLYINLET,Air,3
 Node,520,MECHANICAL_7_Z35_COOLC-HEATCNODE,Air,6
 Node,521,MECHANICAL_7_Z35_HEATC-FANNODE,Air,5
 Node,522,MECHANICAL_7_Z35_SUPPLYEQUIPMENTOUTLETNODE,Air,3
 Node,523,OFFICE_OPEN_7_Z36_SUPPLYINLET,Air,3
 Node,524,OFFICE_OPEN_7_Z36_COOLC-HEATCNODE,Air,6
 Node,525,OFFICE_OPEN_7_Z36_HEATC-FANNODE,Air,5
 Node,526,OFFICE_OPEN_7_Z36_SUPPLYEQUIPMENTOUTLETNODE,Air,3
 Node,527,OFFICE_PRIVATE_7_Z37_SUPPLYINLET,Air,3
 Node,528,OFFICE_PRIVATE_7_Z37_COOLC-HEATCNODE,Air,6
 Node,529,OFFICE_PRIVATE_7_Z37_HEATC-FANNODE,Air,5
 Node,530,OFFICE_PRIVATE_7_Z37_SUPPLYEQUIPMENTOUTLETNODE,Air,3
 Node,531,STORAGE_7_Z38_SUPPLYINLET,Air,3
 Node,532,STORAGE_7_Z38_COOLC-HEATCNODE,Air,6
 Node,533,STORAGE_7_Z38_HEATC-FANNODE,Air,5
 Node,534,STORAGE_7_Z38_SUPPLYEQUIPMENTOUTLETNODE,Air,3
 Node,535,LOBBY_8_Z39_SUPPLYINLET,Air,3
 Node,536,LOBBY_8_Z39_COOLC-HEATCNODE,Air,6
 Node,537,LOBBY_8_Z39_HEATC-FANNODE,Air,5
 Node,538,LOBBY_8_Z39_SUPPLYEQUIPMENTOUTLETNODE,Air,3
 Node,539,MECHANICAL_8_Z40_SUPPLYINLET,Air,3
 Node,540,MECHANICAL_8_Z40_COOLC-HEATCNODE,Air,6
 Node,541,MECHANICAL_8_Z40_HEATC-FANNODE,Air,5
 Node,542,MECHANICAL_8_Z40_SUPPLYEQUIPMENTOUTLETNODE,Air,3
 Node,543,BREAK_ROOM_9_Z41_SUPPLYINLET,Air,3
 Node,544,BREAK_ROOM_9_Z41_COOLC-HEATCNODE,Air,6
 Node,545,BREAK_ROOM_9_Z41_HEATC-FANNODE,Air,5
 Node,546,BREAK_ROOM_9_Z41_SUPPLYEQUIPMENTOUTLETNODE,Air,3
 Node,547,OFFICE_OPEN_9_Z42_SUPPLYINLET,Air,3
 Node,548,OFFICE_OPEN_9_Z42_COOLC-HEATCNODE,Air,6
 Node,549,OFFICE_OPEN_9_Z42_HEATC-FANNODE,Air,5
 Node,550,OFFICE_OPEN_9_Z42_SUPPLYEQUIPMENTOUTLETNODE,Air,3
 Node,551,OFFICE_PRIVATE_9_Z43_SUPPLYINLET,Air,3
 Node,552,OFFICE_PRIVATE_9_Z43_COOLC-HEATCNODE,Air,6
 Node,553,OFFICE_PRIVATE_9_Z43_HEATC-FANNODE,Air,5
 Node,554,OFFICE_PRIVATE_9_Z43_SUPPLYEQUIPMENTOUTLETNODE,Air,3
 Node,555,STORAGE_9_Z44_SUPPLYINLET,Air,3
 Node,556,STORAGE_9_Z44_COOLC-HEATCNODE,Air,6
 Node,557,STORAGE_9_Z44_HEATC-FANNODE,Air,5
 Node,558,STORAGE_9_Z44_SUPPLYEQUIPMENTOUTLETNODE,Air,3
 Node,559,CONFERENCE_10_Z45_SUPPLYINLET,Air,3
 Node,560,CONFERENCE_10_Z45_COOLC-HEATCNODE,Air,6
 Node,561,CONFERENCE_10_Z45_HEATC-FANNODE,Air,5
 Node,562,CONFERENCE_10_Z45_SUPPLYEQUIPMENTOUTLETNODE,Air,3
 Node,563,BREAK_ROOM_10_Z46_SUPPLYINLET,Air,3
 Node,564,BREAK_ROOM_10_Z46_COOLC-HEATCNODE,Air,6
 Node,565,BREAK_ROOM_10_Z46_HEATC-FANNODE,Air,5
 Node,566,BREAK_ROOM_10_Z46_SUPPLYEQUIPMENTOUTLETNODE,Air,3
 Node,567,OFFICE_PRIVATE_10_Z47_SUPPLYINLET,Air,3
 Node,568,OFFICE_PRIVATE_10_Z47_COOLC-HEATCNODE,Air,6
 Node,569,OFFICE_PRIVATE_10_Z47_HEATC-FANNODE,Air,5
 Node,570,OFFICE_PRIVATE_10_Z47_SUPPLYEQUIPMENTOUTLETNODE,Air,3
 Node,571,STORAGE_10_Z48_SUPPLYINLET,Air,3
 Node,572,STORAGE_10_Z48_COOLC-HEATCNODE,Air,6
 Node,573,STORAGE_10_Z48_HEATC-FANNODE,Air,5
 Node,574,STORAGE_10_Z48_SUPPLYEQUIPMENTOUTLETNODE,Air,3
 Node,575,CONFERENCE_11_Z49_SUPPLYINLET,Air,3
 Node,576,CONFERENCE_11_Z49_COOLC-HEATCNODE,Air,6
 Node,577,CONFERENCE_11_Z49_HEATC-FANNODE,Air,5
 Node,578,CONFERENCE_11_Z49_SUPPLYEQUIPMENTOUTLETNODE,Air,3
 Node,579,BREAK_ROOM_11_Z50_SUPPLYINLET,Air,3
 Node,580,BREAK_ROOM_11_Z50_COOLC-HEATCNODE,Air,6
 Node,581,BREAK_ROOM_11_Z50_HEATC-FANNODE,Air,5
 Node,582,BREAK_ROOM_11_Z50_SUPPLYEQUIPMENTOUTLETNODE,Air,3
 Node,583,MECHANICAL_11_Z51_SUPPLYINLET,Air,3
 Node,584,MECHANICAL_11_Z51_COOLC-HEATCNODE,Air,6
 Node,585,MECHANICAL_11_Z51_HEATC-FANNODE,Air,5
 Node,586,MECHANICAL_11_Z51_SUPPLYEQUIPMENTOUTLETNODE,Air,3
 Node,587,OFFICE_OPEN_11_Z52_SUPPLYINLET,Air,3
 Node,588,OFFICE_OPEN_11_Z52_COOLC-HEATCNODE,Air,6
 Node,589,OFFICE_OPEN_11_Z52_HEATC-FANNODE,Air,5
 Node,590,OFFICE_OPEN_11_Z52_SUPPLYEQUIPMENTOUTLETNODE,Air,3
 Node,591,OFFICE_PRIVATE_11_Z53_SUPPLYINLET,Air,3
 Node,592,OFFICE_PRIVATE_11_Z53_COOLC-HEATCNODE,Air,6
 Node,593,OFFICE_PRIVATE_11_Z53_HEATC-FANNODE,Air,5
 Node,594,OFFICE_PRIVATE_11_Z53_SUPPLYEQUIPMENTOUTLETNODE,Air,3
 Node,595,STORAGE_11_Z54_SUPPLYINLET,Air,3
 Node,596,STORAGE_11_Z54_COOLC-HEATCNODE,Air,6
 Node,597,STORAGE_11_Z54_HEATC-FANNODE,Air,5
 Node,598,STORAGE_11_Z54_SUPPLYEQUIPMENTOUTLETNODE,Air,3
 Node,599,LOBBY_12_Z55_SUPPLYINLET,Air,3
 Node,600,LOBBY_12_Z55_COOLC-HEATCNODE,Air,6
 Node,601,LOBBY_12_Z55_HEATC-FANNODE,Air,5
 Node,602,LOBBY_12_Z55_SUPPLYEQUIPMENTOUTLETNODE,Air,3
 Node,603,CONFERENCE_12_Z56_SUPPLYINLET,Air,3
 Node,604,CONFERENCE_12_Z56_COOLC-HEATCNODE,Air,6
 Node,605,CONFERENCE_12_Z56_HEATC-FANNODE,Air,5
 Node,606,CONFERENCE_12_Z56_SUPPLYEQUIPMENTOUTLETNODE,Air,3
 Node,607,STORAGE_12_Z57_SUPPLYINLET,Air,3
 Node,608,STORAGE_12_Z57_COOLC-HEATCNODE,Air,6
 Node,609,STORAGE_12_Z57_HEATC-FANNODE,Air,5
 Node,610,STORAGE_12_Z57_SUPPLYEQUIPMENTOUTLETNODE,Air,3
 Node,611,LOBBY_13_Z58_SUPPLYINLET,Air,3
 Node,612,LOBBY_13_Z58_COOLC-HEATCNODE,Air,6
 Node,613,LOBBY_13_Z58_HEATC-FANNODE,Air,5
 Node,614,LOBBY_13_Z58_SUPPLYEQUIPMENTOUTLETNODE,Air,3
 Node,615,CONFERENCE_13_Z59_SUPPLYINLET,Air,3
 Node,616,CONFERENCE_13_Z59_COOLC-HEATCNODE,Air,6
 Node,617,CONFERENCE_13_Z59_HEATC-FANNODE,Air,5
 Node,618,CONFERENCE_13_Z59_SUPPLYEQUIPMENTOUTLETNODE,Air,3
 Node,619,MECHANICAL_13_Z60_SUPPLYINLET,Air,3
 Node,620,MECHANICAL_13_Z60_COOLC-HEATCNODE,Air,6
 Node,621,MECHANICAL_13_Z60_HEATC-FANNODE,Air,5
 Node,622,MECHANICAL_13_Z60_SUPPLYEQUIPMENTOUTLETNODE,Air,3
 Node,623,OFFICE_PRIVATE_13_Z61_SUPPLYINLET,Air,3
 Node,624,OFFICE_PRIVATE_13_Z61_COOLC-HEATCNODE,Air,6
 Node,625,OFFICE_PRIVATE_13_Z61_HEATC-FANNODE,Air,5
 Node,626,OFFICE_PRIVATE_13_Z61_SUPPLYEQUIPMENTOUTLETNODE,Air,3
 Node,627,STORAGE_13_Z62_SUPPLYINLET,Air,3
 Node,628,STORAGE_13_Z62_COOLC-HEATCNODE,Air,6
 Node,629,STORAGE_13_Z62_HEATC-FANNODE,Air,5
 Node,630,STORAGE_13_Z62_SUPPLYEQUIPMENTOUTLETNODE,Air,3
 Node,631,LOBBY_14_Z63_SUPPLYINLET,Air,3
 Node,632,LOBBY_14_Z63_COOLC-HEATCNODE,Air,6
 Node,633,LOBBY_14_Z63_HEATC-FANNODE,Air,5
 Node,634,LOBBY_14_Z63_SUPPLYEQUIPMENTOUTLETNODE,Air,3
 Node,635,CONFERENCE_14_Z64_SUPPLYINLET,Air,3
 Node,636,CONFERENCE_14_Z64_COOLC-HEATCNODE,Air,6
 Node,637,CONFERENCE_14_Z64_HEATC-FANNODE,Air,5
 Node,638,CONFERENCE_14_Z64_SUPPLYEQUIPMENTOUTLETNODE,Air,3
 Node,639,BREAK_ROOM_14_Z65_SUPPLYINLET,Air,3
 Node,640,BREAK_ROOM_14_Z65_COOLC-HEATCNODE,Air,6
 Node,641,BREAK_ROOM_14_Z65_HEATC-FANNODE,Air,5
 Node,642,BREAK_ROOM_14_Z65_SUPPLYEQUIPMENTOUTLETNODE,Air,3
 Node,643,OFFICE_OPEN_14_Z66_SUPPLYINLET,Air,3
 Node,644,OFFICE_OPEN_14_Z66_COOLC-HEATCNODE,Air,6
 Node,645,OFFICE_OPEN_14_Z66_HEATC-FANNODE,Air,5
 Node,646,OFFICE_OPEN_14_Z66_SUPPLYEQUIPMENTOUTLETNODE,Air,3
 Node,647,OFFICE_PRIVATE_14_Z67_SUPPLYINLET,Air,3
 Node,648,OFFICE_PRIVATE_14_Z67_COOLC-HEATCNODE,Air,6
 Node,649,OFFICE_PRIVATE_14_Z67_HEATC-FANNODE,Air,5
 Node,650,OFFICE_PRIVATE_14_Z67_SUPPLYEQUIPMENTOUTLETNODE,Air,3
 Node,651,CONFERENCE_15_Z68_SUPPLYINLET,Air,3
 Node,652,CONFERENCE_15_Z68_COOLC-HEATCNODE,Air,6
 Node,653,CONFERENCE_15_Z68_HEATC-FANNODE,Air,5
 Node,654,CONFERENCE_15_Z68_SUPPLYEQUIPMENTOUTLETNODE,Air,3
 Node,655,BREAK_ROOM_15_Z69_SUPPLYINLET,Air,3
 Node,656,BREAK_ROOM_15_Z69_COOLC-HEATCNODE,Air,6
 Node,657,BREAK_ROOM_15_Z69_HEATC-FANNODE,Air,5
 Node,658,BREAK_ROOM_15_Z69_SUPPLYEQUIPMENTOUTLETNODE,Air,3
 Node,659,MECHANICAL_15_Z70_SUPPLYINLET,Air,3
 Node,660,MECHANICAL_15_Z70_COOLC-HEATCNODE,Air,6
 Node,661,MECHANICAL_15_Z70_HEATC-FANNODE,Air,5
 Node,662,MECHANICAL_15_Z70_SUPPLYEQUIPMENTOUTLETNODE,Air,3
 Node,663,OFFICE_PRIVATE_15_Z71_SUPPLYINLET,Air,3
 Node,664,OFFICE_PRIVATE_15_Z71_COOLC-HEATCNODE,Air,6
 Node,665,OFFICE_PRIVATE_15_Z71_HEATC-FANNODE,Air,5
 Node,666,OFFICE_PRIVATE_15_Z71_SUPPLYEQUIPMENTOUTLETNODE,Air,3
 Node,667,LOBBY_16_Z72_SUPPLYINLET,Air,3
 Node,668,LOBBY_16_Z72_COOLC-HEATCNODE,Air,6
 Node,669,LOBBY_16_Z72_HEATC-FANNODE,Air,5
 Node,670,LOBBY_16_Z72_SUPPLYEQUIPMENTOUTLETNODE,Air,3
 Node,671,BREAK_ROOM_16_Z73_SUPPLYINLET,Air,3
 Node,672,BREAK_ROOM_16_Z73_COOLC-HEATCNODE,Air,6
 Node,673,BREAK_ROOM_16_Z73_HEATC-FANNODE,Air,5
 Node,674,BREAK_ROOM_16_Z73_SUPPLYEQUIPMENTOUTLETNODE,Air,3
 Node,675,OFFICE_OPEN_16_Z74_SUPPLYINLET,Air,3
 Node,676,OFFICE_OPEN_16_Z74_COOLC-HEATCNODE,Air,6
 Node,677,OFFICE_OPEN_16_Z74_HEATC-FANNODE,Air,5
 Node,678,OFFICE_OPEN_16_Z74_SUPPLYEQUIPMENTOUTLETNODE,Air,3
 Node,679,OFFICE_PRIVATE_16_Z75_SUPPLYINLET,Air,3
 Node,680,OFFICE_PRIVATE_16_Z75_COOLC-HEATCNODE,Air,6
 Node,681,OFFICE_PRIVATE_16_Z75_HEATC-FANNODE,Air,5
 Node,682,OFFICE_PRIVATE_16_Z75_SUPPLYEQUIPMENTOUTLETNODE,Air,3
 Node,683,STORAGE_16_Z76_SUPPLYINLET,Air,3
 Node,684,STORAGE_16_Z76_COOLC-HEATCNODE,Air,6
 Node,685,STORAGE_16_Z76_HEATC-FANNODE,Air,5
 Node,686,STORAGE_16_Z76_SUPPLYEQUIPMENTOUTLETNODE,Air,3
 Node,687,CONFERENCE_17_Z77_SUPPLYINLET,Air,3
 Node,688,CONFERENCE_17_Z77_COOLC-HEATCNODE,Air,6
 Node,689,CONFERENCE_17_Z77_HEATC-FANNODE,Air,5
 Node,690,CONFERENCE_17_Z77_SUPPLYEQUIPMENTOUTLETNODE,Air,3
 Node,691,MECHANICAL_17_Z78_SUPPLYINLET,Air,3
 Node,692,MECHANICAL_17_Z78_COOLC-HEATCNODE,Air,6
 Node,693,MECHANICAL_17_Z78_HEATC-FANNODE,Air,5
 Node,694,MECHANICAL_17_Z78_SUPPLYEQUIPMENTOUTLETNODE,Air,3
 Node,695,OFFICE_OPEN_17_Z79_SUPPLYINLET,Air,3
 Node,696,OFFICE_OPEN_17_Z79_COOLC-HEATCNODE,Air,6
 Node,697,OFFICE_OPEN_17_Z79_HEATC-FANNODE,Air,5
 Node,698,OFFICE_OPEN_17_Z79_SUPPLYEQUIPMENTOUTLETNODE,Air,3
 Node,699,OFFICE_PRIVATE_17_Z80_SUPPLYINLET,Air,3
 Node,700,OFFICE_PRIVATE_17_Z80_COOLC-HEATCNODE,Air,6
 Node,701,OFFICE_PRIVATE_17_Z80_HEATC-FANNODE,Air,5
 Node,702,OFFICE_PRIVATE_17_Z80_SUPPLYEQUIPMENTOUTLETNODE,Air,3
 Node,703,STORAGE_17_Z81_SUPPLYINLET,Air,3
 Node,704,STORAGE_17_Z81_COOLC-HEATCNODE,Air,6
 Node,705,STORAGE_17_Z81_HEATC-FANNODE,Air,5
 Node,706,STORAGE_17_Z81_SUPPLYEQUIPMENTOUTLETNODE,Air,3
 Node,707,BREAK_ROOM_18_Z82_SUPPLYINLET,Air,3
 Node,708,BREAK_ROOM_18_Z82_COOLC-HEATCNODE,Air,6
 Node,709,BREAK_ROOM_18_Z82_HEATC-FANNODE,Air,5
 Node,710,BREAK_ROOM_18_Z82_SUPPLYEQUIPMENTOUTLETNODE,Air,3
 Node,711,MECHANICAL_18_Z83_SUPPLYINLET,Air,3
 Node,712,MECHANICAL_18_Z83_COOLC-HEATCNODE,Air,6
 Node,713,MECHANICAL_18_Z83_HEATC-FANNODE,Air,5
 Node,714,MECHANICAL_18_Z83_SUPPLYEQUIPMENTOUTLETNODE,Air,3
 Node,715,OFFICE_PRIVATE_18_Z84_SUPPLYINLET,Air,3
 Node,716,OFFICE_PRIVATE_18_Z84_COOLC-HEATCNODE,Air,6
 Node,717,OFFICE_PRIVATE_18_Z84_HEATC-FANNODE,Air,5
 Node,718,OFFICE_PRIVATE_18_Z84_SUPPLYEQUIPMENTOUTLETNODE,Air,3
 Node,719,STORAGE_18_Z85_SUPPLYINLET,Air,3
 Node,720,STORAGE_18_Z85_COOLC-HEATCNODE,Air,6
 Node,721,STORAGE_18_Z85_HEATC-FANNODE,Air,5
 Node,722,STORAGE_18_Z85_SUPPLYEQUIPMENTOUTLETNODE,Air,3
 Node,723,LOBBY_19_Z86_SUPPLYINLET,Air,3
 Node,724,LOBBY_19_Z86_COOLC-HEATCNODE,Air,6
 Node,725,LOBBY_19_Z86_HEATC-FANNODE,Air,5
 Node,726,LOBBY_19_Z86_SUPPLYEQUIPMENTOUTLETNODE,Air,3
 Node,727,BREAK_ROOM_19_Z87_SUPPLYINLET,Air,3
 Node,728,BREAK_ROOM_19_Z87_COOLC-HEATCNODE,Air,6
 Node,729,BREAK_ROOM_19_Z87_HEATC-FANNODE,Air,5
 Node,730,BREAK_ROOM_19_Z87_SUPPLYEQUIPMENTOUTLETNODE,Air,3
 Node,731,OFFICE_OPEN_19_Z88_SUPPLYINLET,Air,3
 Node,732,OFFICE_OPEN_19_Z88_COOLC-HEATCNODE,Air,6
 Node,733,OFFICE_OPEN_19_Z88_HEATC-FANNODE,Air,5
 Node,734,OFFICE_OPEN_19_Z88_SUPPLYEQUIPMENTOUTLETNODE,Air,3
 Node,735,OFFICE_PRIVATE_19_Z89_SUPPLYINLET,Air,3
 Node,736,OFFICE_PRIVATE_19_Z89_COOLC-HEATCNODE,Air,6
 Node,737,OFFICE_PRIVATE_19_Z89_HEATC-FANNODE,Air,5
 Node,738,OFFICE_PRIVATE_19_Z89_SUPPLYEQUIPMENTOUTLETNODE,Air,3
 Node,739,STORAGE_19_Z90_SUPPLYINLET,Air,3
 Node,740,STORAGE_19_Z90_COOLC-HEATCNODE,Air,6
 Node,741,STORAGE_19_Z90_HEATC-FANNODE,Air,5
 Node,742,STORAGE_19_Z90_SUPPLYEQUIPMENTOUTLETNODE,Air,3
 Node,743,LOBBY_20_Z91_SUPPLYINLET,Air,3
 Node,744,LOBBY_20_Z91_COOLC-HEATCNODE,Air,6
 Node,745,LOBBY_20_Z91_HEATC-FANNODE,Air,5
 Node,746,LOBBY_20_Z91_SUPPLYEQUIPMENTOUTLETNODE,Air,3
 Node,747,CONFERENCE_20_Z92_SUPPLYINLET,Air,3
 Node,748,CONFERENCE_20_Z92_COOLC-HEATCNODE,Air,6
 Node,749,CONFERENCE_20_Z92_HEATC-FANNODE,Air,5
 Node,750,CONFERENCE_20_Z92_SUPPLYEQUIPMENTOUTLETNODE,Air,3
 Node,751,BREAK_ROOM_20_Z93_SUPPLYINLET,Air,3
 Node,752,BREAK_ROOM_20_Z93_COOLC-HEATCNODE,Air,6
 Node,753,BREAK_ROOM_20_Z93_HEATC-FANNODE,Air,5
 Node,754,BREAK_ROOM_20_Z93_SUPPLYEQUIPMENTOUTLETNODE,Air,3
 Node,755,MECHANICAL_20_Z94_SUPPLYINLET,Air,3
 Node,756,MECHANICAL_20_Z94_COOLC-HEATCNODE,Air,6
 Node,757,MECHANICAL_20_Z94_HEATC-FANNODE,Air,5
 Node,758,MECHANICAL_20_Z94_SUPPLYEQUIPMENTOUTLETNODE,Air,3
 Node,759,OFFICE_PRIVATE_20_Z95_SUPPLYINLET,Air,3
 Node,760,OFFICE_PRIVATE_20_Z95_COOLC-HEATCNODE,Air,6
 Node,761,OFFICE_PRIVATE_20_Z95_HEATC-FANNODE,Air,5
 Node,762,OFFICE_PRIVATE_20_Z95_SUPPLYEQUIPMENTOUTLETNODE,Air,3
 Node,763,LOBBY_21_Z96_SUPPLYINLET,Air,3
 Node,764,LOBBY_21_Z96_COOLC-HEATCNODE,Air,6
 Node,765,LOBBY_21_Z96_HEATC-FANNODE,Air,5
 Node,766,LOBBY_21_Z96_SUPPLYEQUIPMENTOUTLETNODE,Air,3
 Node,767,CONFERENCE_21_Z97_SUPPLYINLET,Air,3
 Node,768,CONFERENCE_21_Z97_COOLC-HEATCNODE,Air,6
 Node,769,CONFERENCE_21_Z97_HEATC-FANNODE,Air,5
 Node,770,CONFERENCE_21_Z97_SUPPLYEQUIPMENTOUTLETNODE,Air,3
 Node,771,BREAK_ROOM_21_Z98_SUPPLYINLET,Air,3
 Node,772,BREAK_ROOM_21_Z98_COOLC-HEATCNODE,Air,6
 Node,773,BREAK_ROOM_21_Z98_HEATC-FANNODE,Air,5
 Node,774,BREAK_ROOM_21_Z98_SUPPLYEQUIPMENTOUTLETNODE,Air,3
 Node,775,MECHANICAL_21_Z99_SUPPLYINLET,Air,3
 Node,776,MECHANICAL_21_Z99_COOLC-HEATCNODE,Air,6
 Node,777,MECHANICAL_21_Z99_HEATC-FANNODE,Air,5
 Node,778,MECHANICAL_21_Z99_SUPPLYEQUIPMENTOUTLETNODE,Air,3
 Node,779,OFFICE_PRIVATE_21_Z100_SUPPLYINLET,Air,3
 Node,780,OFFICE_PRIVATE_21_Z100_COOLC-HEATCNODE,Air,6
 Node,781,OFFICE_PRIVATE_21_Z100_HEATC-FANNODE,Air,5
 Node,782,OFFICE_PRIVATE_21_Z100_SUPPLYEQUIPMENTOUTLETNODE,Air,3
 Node,783,STORAGE_21_Z101_SUPPLYINLET,Air,3
 Node,784,STORAGE_21_Z101_COOLC-HEATCNODE,Air,6
 Node,785,STORAGE_21_Z101_HEATC-FANNODE,Air,5
 Node,786,STORAGE_21_Z101_SUPPLYEQUIPMENTOUTLETNODE,Air,3
 Node,787,CONFERENCE_22_Z102_SUPPLYINLET,Air,3
 Node,788,CONFERENCE_22_Z102_COOLC-HEATCNODE,Air,6
 Node,789,CONFERENCE_22_Z102_HEATC-FANNODE,Air,5
 Node,790,CONFERENCE_22_Z102_SUPPLYEQUIPMENTOUTLETNODE,Air,3
 Node,791,MECHANICAL_22_Z103_SUPPLYINLET,Air,3
 Node,792,MECHANICAL_22_Z103_COOLC-HEATCNODE,Air,6
 Node,793,MECHANICAL_22_Z103_HEATC-FANNODE,Air,5
 Node,794,MECHANICAL_22_Z103_SUPPLYEQUIPMENTOUTLETNODE,Air,3
 Node,795,OFFICE_OPEN_22_Z104_SUPPLYINLET,Air,3
 Node,796,OFFICE_OPEN_22_Z104_COOLC-HEATCNODE,Air,6
 Node,797,OFFICE_OPEN_22_Z104_HEATC-FANNODE,Air,5
 Node,798,OFFICE_OPEN_22_Z104_SUPPLYEQUIPMENTOUTLETNODE,Air,3
 Node,799,OFFICE_PRIVATE_22_Z105_SUPPLYINLET,Air,3
 Node,800,OFFICE_PRIVATE_22_Z105_COOLC-HEATCNODE,Air,6
 Node,801,OFFICE_PRIVATE_22_Z105_HEATC-FANNODE,Air,5
 Node,802,OFFICE_PRIVATE_22_Z105_SUPPLYEQUIPMENTOUTLETNODE,Air,3
 Node,803,STORAGE_22_Z106_SUPPLYINLET,Air,3
 Node,804,STORAGE_22_Z106_COOLC-HEATCNODE,Air,6
 Node,805,STORAGE_22_Z106_HEATC-FANNODE,Air,5
 Node,806,STORAGE_22_Z106_SUPPLYEQUIPMENTOUTLETNODE,Air,3
 Node,807,LOBBY_23_Z107_SUPPLYINLET,Air,3
 Node,808,LOBBY_23_Z107_COOLC-HEATCNODE,Air,6
 Node,809,LOBBY_23_Z107_HEATC-FANNODE,Air,5
 Node,810,LOBBY_23_Z107_SUPPLYEQUIPMENTOUTLETNODE,Air,3
 Node,811,BREAK_ROOM_23_Z108_SUPPLYINLET,Air,3
 Node,812,BREAK_ROOM_23_Z108_COOLC-HEATCNODE,Air,6
 Node,813,BREAK_ROOM_23_Z108_HEATC-FANNODE,Air,5
 Node,814,BREAK_ROOM_23_Z108_SUPPLYEQUIPMENTOUTLETNODE,Air,3
 Node,815,MECHANICAL_23_Z109_SUPPLYINLET,Air,3
 Node,816,MECHANICAL_23_Z109_COOLC-HEATCNODE,Air,6
 Node,817,MECHANICAL_23_Z109_HEATC-FANNODE,Air,5
 Node,818,MECHANICAL_23_Z109_SUPPLYEQUIPMENTOUTLETNODE,Air,3
 Node,819,OFFICE_OPEN_23_Z110_SUPPLYINLET,Air,3
 Node,820,OFFICE_OPEN_23_Z110_COOLC-HEATCNODE,Air,6
 Node,821,OFFICE_OPEN_23_Z110_HEATC-FANNODE,Air,5
 Node,822,OFFICE_OPEN_23_Z110_SUPPLYEQUIPMENTOUTLETNODE,Air,3
 Node,823,OFFICE_PRIVATE_23_Z111_SUPPLYINLET,Air,3
 Node,824,OFFICE_PRIVATE_23_Z111_COOLC-HEATCNODE,Air,6
 Node,825,OFFICE_PRIVATE_23_Z111_HEATC-FANNODE,Air,5
 Node,826,OFFICE_PRIVATE_23_Z111_SUPPLYEQUIPMENTOUTLETNODE,Air,3
 Node,827,STORAGE_23_Z112_SUPPLYINLET,Air,3
 Node,828,STORAGE_23_Z112_COOLC-HEATCNODE,Air,6
 Node,829,STORAGE_23_Z112_HEATC-FANNODE,Air,5
 Node,830,STORAGE_23_Z112_SUPPLYEQUIPMENTOUTLETNODE,Air,3
 Node,831,BREAK_ROOM_25_Z113_SUPPLYINLET,Air,3
 Node,832,BREAK_ROOM_25_Z113_COOLC-HEATCNODE,Air,6
 Node,833,BREAK_ROOM_25_Z113_HEATC-FANNODE,Air,5
 Node,834,BREAK_ROOM_25_Z113_SUPPLYEQUIPMENTOUTLETNODE,Air,3
 Node,835,OFFICE_OPEN_25_Z114_SUPPLYINLET,Air,3
 Node,836,OFFICE_OPEN_25_Z114_COOLC-HEATCNODE,Air,6
 Node,837,OFFICE_OPEN_25_Z114_HEATC-FANNODE,Air,5
 Node,838,OFFICE_OPEN_25_Z114_SUPPLYEQUIPMENTOUTLETNODE,Air,3
 Node,839,OFFICE_PRIVATE_25_Z115_SUPPLYINLET,Air,3
 Node,840,OFFICE_PRIVATE_25_Z115_COOLC-HEATCNODE,Air,6
 Node,841,OFFICE_PRIVATE_25_Z115_HEATC-FANNODE,Air,5
 Node,842,OFFICE_PRIVATE_25_Z115_SUPPLYEQUIPMENTOUTLETNODE,Air,3
 Node,843,STORAGE_25_Z116_SUPPLYINLET,Air,3
 Node,844,STORAGE_25_Z116_COOLC-HEATCNODE,Air,6
 Node,845,STORAGE_25_Z116_HEATC-FANNODE,Air,5
 Node,846,STORAGE_25_Z116_SUPPLYEQUIPMENTOUTLETNODE,Air,3
 Node,847,LOBBY_26_Z117_SUPPLYINLET,Air,3
 Node,848,LOBBY_26_Z117_COOLC-HEATCNODE,Air,6
 Node,849,LOBBY_26_Z117_HEATC-FANNODE,Air,5
 Node,850,LOBBY_26_Z117_SUPPLYEQUIPMENTOUTLETNODE,Air,3
 Node,851,CONFERENCE_26_Z118_SUPPLYINLET,Air,3
 Node,852,CONFERENCE_26_Z118_COOLC-HEATCNODE,Air,6
 Node,853,CONFERENCE_26_Z118_HEATC-FANNODE,Air,5
 Node,854,CONFERENCE_26_Z118_SUPPLYEQUIPMENTOUTLETNODE,Air,3
 Node,855,BREAK_ROOM_26_Z119_SUPPLYINLET,Air,3
 Node,856,BREAK_ROOM_26_Z119_COOLC-HEATCNODE,Air,6
 Node,857,BREAK_ROOM_26_Z119_HEATC-FANNODE,Air,5
 Node,858,BREAK_ROOM_26_Z119_SUPPLYEQUIPMENTOUTLETNODE,Air,3
 Node,859,MECHANICAL_26_Z120_SUPPLYINLET,Air,3
 Node,860,MECHANICAL_26_Z120_COOLC-HEATCNODE,Air,6
 Node,861,MECHANICAL_26_Z120_HEATC-FANNODE,Air,5
 Node,862,MECHANICAL_26_Z120_SUPPLYEQUIPMENTOUTLETNODE,Air,3
 Node,863,OFFICE_OPEN_26_Z121_SUPPLYINLET,Air,3
 Node,864,OFFICE_OPEN_26_Z121_COOLC-HEATCNODE,Air,6
 Node,865,OFFICE_OPEN_26_Z121_HEATC-FANNODE,Air,5
 Node,866,OFFICE_OPEN_26_Z121_SUPPLYEQUIPMENTOUTLETNODE,Air,3
 Node,867,STORAGE_26_Z122_SUPPLYINLET,Air,3
 Node,868,STORAGE_26_Z122_COOLC-HEATCNODE,Air,6
 Node,869,STORAGE_26_Z122_HEATC-FANNODE,Air,5
 Node,870,STORAGE_26_Z122_SUPPLYEQUIPMENTOUTLETNODE,Air,3
 Node,871,LOBBY_27_Z123_SUPPLYINLET,Air,3
 Node,872,LOBBY_27_Z123_COOLC-HEATCNODE,Air,6
 Node,873,LOBBY_27_Z123_HEATC-FANNODE,Air,5
 Node,874,LOBBY_27_Z123_SUPPLYEQUIPMENTOUTLETNODE,Air,3
 Node,875,CONFERENCE_27_Z124_SUPPLYINLET,Air,3
 Node,876,CONFERENCE_27_Z124_COOLC-HEATCNODE,Air,6
 Node,877,CONFERENCE_27_Z124_HEATC-FANNODE,Air,5
 Node,878,CONFERENCE_27_Z124_SUPPLYEQUIPMENTOUTLETNODE,Air,3
 Node,879,MECHANICAL_27_Z125_SUPPLYINLET,Air,3
 Node,880,MECHANICAL_27_Z125_COOLC-HEATCNODE,Air,6
 Node,881,MECHANICAL_27_Z125_HEATC-FANNODE,Air,5
 Node,882,MECHANICAL_27_Z125_SUPPLYEQUIPMENTOUTLETNODE,Air,3
 Node,883,OFFICE_OPEN_27_Z126_SUPPLYINLET,Air,3
 Node,884,OFFICE_OPEN_27_Z126_COOLC-HEATCNODE,Air,6
 Node,885,OFFICE_OPEN_27_Z126_HEATC-FANNODE,Air,5
 Node,886,OFFICE_OPEN_27_Z126_SUPPLYEQUIPMENTOUTLETNODE,Air,3
 Node,887,OFFICE_PRIVATE_27_Z127_SUPPLYINLET,Air,3
 Node,888,OFFICE_PRIVATE_27_Z127_COOLC-HEATCNODE,Air,6
 Node,889,OFFICE_PRIVATE_27_Z127_HEATC-FANNODE,Air,5
 Node,890,OFFICE_PRIVATE_27_Z127_SUPPLYEQUIPMENTOUTLETNODE,Air,3
 Node,891,CONFERENCE_28_Z128_SUPPLYINLET,Air,3
 Node,892,CONFERENCE_28_Z128_COOLC-HEATCNODE,Air,6
 Node,893,CONFERENCE_28_Z128_HEATC-FANNODE,Air,5
 Node,894,CONFERENCE_28_Z128_SUPPLYEQUIPMENTOUTLETNODE,Air,3
 Node,895,BREAK_ROOM_28_Z129_SUPPLYINLET,Air,3
 Node,896,BREAK_ROOM_28_Z129_COOLC-HEATCNODE,Air,6
 Node,897,BREAK_ROOM_28_Z129_HEATC-FANNODE,Air,5
 Node,898,BREAK_ROOM_28_Z129_SUPPLYEQUIPMENTOUTLETNODE,Air,3
 Node,899,MECHANICAL_28_Z130_SUPPLYINLET,Air,3
 Node,900,MECHANICAL_28_Z130_COOLC-HEATCNODE,Air,6
 Node,901,MECHANICAL_28_Z130_HEATC-FANNODE,Air,5
 Node,902,MECHANICAL_28_Z130_SUPPLYEQUIPMENTOUTLETNODE,Air,3
 Node,903,OFFICE_PRIVATE_28_Z131_SUPPLYINLET,Air,3
 Node,904,OFFICE_PRIVATE_28_Z131_COOLC-HEATCNODE,Air,6
 Node,905,OFFICE_PRIVATE_28_Z131_HEATC-FANNODE,Air,5
 Node,906,OFFICE_PRIVATE_28_Z131_SUPPLYEQUIPMENTOUTLETNODE,Air,3
 Node,907,LOBBY_29_Z132_SUPPLYINLET,Air,3
 Node,908,LOBBY_29_Z132_COOLC-HEATCNODE,Air,6
 Node,909,LOBBY_29_Z132_HEATC-FANNODE,Air,5
 Node,910,LOBBY_29_Z132_SUPPLYEQUIPMENTOUTLETNODE,Air,3
 Node,911,CONFERENCE_29_Z133_SUPPLYINLET,Air,3
 Node,912,CONFERENCE_29_Z133_COOLC-HEATCNODE,Air,6
 Node,913,CONFERENCE_29_Z133_HEATC-FANNODE,Air,5
 Node,914,CONFERENCE_29_Z133_SUPPLYEQUIPMENTOUTLETNODE,Air,3
 Node,915,MECHANICAL_29_Z134_SUPPLYINLET,Air,3
 Node,916,MECHANICAL_29_Z134_COOLC-HEATCNODE,Air,6
 Node,917,MECHANICAL_29_Z134_HEATC-FANNODE,Air,5
 Node,918,MECHANICAL_29_Z134_SUPPLYEQUIPMENTOUTLETNODE,Air,3
 Node,919,OFFICE_OPEN_29_Z135_SUPPLYINLET,Air,3
 Node,920,OFFICE_OPEN_29_Z135_COOLC-HEATCNODE,Air,6
 Node,921,OFFICE_OPEN_29_Z135_HEATC-FANNODE,Air,5
 Node,922,OFFICE_OPEN_29_Z135_SUPPLYEQUIPMENTOUTLETNODE,Air,3
 Node,923,OFFICE_PRIVATE_29_Z136_SUPPLYINLET,Air,3
 Node,924,OFFICE_PRIVATE_29_Z136_COOLC-HEATCNODE,Air,6
 Node,925,OFFICE_PRIVATE_29_Z136_HEATC-FANNODE,Air,5
 Node,926,OFFICE_PRIVATE_29_Z136_SUPPLYEQUIPMENTOUTLETNODE,Air,3
 Node,927,STORAGE_29_Z137_SUPPLYINLET,Air,3
 Node,928,STORAGE_29_Z137_COOLC-HEATCNODE,Air,6
 Node,929,STORAGE_29_Z137_HEATC-FANNODE,Air,5
 Node,930,STORAGE_29_Z137_SUPPLYEQUIPMENTOUTLETNODE,Air,3
 Node,931,CONFERENCE_30_Z138_SUPPLYINLET,Air,3
 Node,932,CONFERENCE_30_Z138_COOLC-HEATCNODE,Air,6
 Node,933,CONFERENCE_30_Z138_HEATC-FANNODE,Air,5
 Node,934,CONFERENCE_30_Z138_SUPPLYEQUIPMENTOUTLETNODE,Air,3
 Node,935,OFFICE_PRIVATE_30_Z139_SUPPLYINLET,Air,3
 Node,936,OFFICE_PRIVATE_30_Z139_COOLC-HEATCNODE,Air,6
 Node,937,OFFICE_PRIVATE_30_Z139_HEATC-FANNODE,Air,5
 Node,938,OFFICE_PRIVATE_30_Z139_SUPPLYEQUIPMENTOUTLETNODE,Air,3
 Node,939,STORAGE_30_Z140_SUPPLYINLET,Air,3
 Node,940,STORAGE_30_Z140_COOLC-HEATCNODE,Air,6
 Node,941,STORAGE_30_Z140_HEATC-FANNODE,Air,5
 Node,942,STORAGE_30_Z140_SUPPLYEQUIPMENTOUTLETNODE,Air,3
 Node,943,CONFERENCE_31_Z141_SUPPLYINLET,Air,3
 Node,944,CONFERENCE_31_Z141_COOLC-HEATCNODE,Air,6
 Node,945,CONFERENCE_31_Z141_HEATC-FANNODE,Air,5
 Node,946,CONFERENCE_31_Z141_SUPPLYEQUIPMENTOUTLETNODE,Air,3
 Node,947,OFFICE_OPEN_31_Z142_SUPPLYINLET,Air,3
 Node,948,OFFICE_OPEN_31_Z142_COOLC-HEATCNODE,Air,6
 Node,949,OFFICE_OPEN_31_Z142_HEATC-FANNODE,Air,5
 Node,950,OFFICE_OPEN_31_Z142_SUPPLYEQUIPMENTOUTLETNODE,Air,3
 Node,951,STORAGE_31_Z143_SUPPLYINLET,Air,3
 Node,952,STORAGE_31_Z143_COOLC-HEATCNODE,Air,6
 Node,953,STORAGE_31_Z143_HEATC-FANNODE,Air,5
 Node,954,STORAGE_31_Z143_SUPPLYEQUIPMENTOUTLETNODE,Air,3
 Node,955,LOBBY_32_Z144_SUPPLYINLET,Air,3
 Node,956,LOBBY_32_Z144_COOLC-HEATCNODE,Air,6
 Node,957,LOBBY_32_Z144_HEATC-FANNODE,Air,5
 Node,958,LOBBY_32_Z144_SUPPLYEQUIPMENTOUTLETNODE,Air,3
 Node,959,BREAK_ROOM_32_Z145_SUPPLYINLET,Air,3
 Node,960,BREAK_ROOM_32_Z145_COOLC-HEATCNODE,Air,6
 Node,961,BREAK_ROOM_32_Z145_HEATC-FANNODE,Air,5
 Node,962,BREAK_ROOM_32_Z145_SUPPLYEQUIPMENTOUTLETNODE,Air,3
 Node,963,MECHANICAL_32_Z146_SUPPLYINLET,Air,3
 Node,964,MECHANICAL_32_Z146_COOLC-HEATCNODE,Air,6
 Node,965,MECHANICAL_32_Z146_HEATC-FANNODE,Air,5
 Node,966,MECHANICAL_32_Z146_SUPPLYEQUIPMENTOUTLETNODE,Air,3
 Node,967,OFFICE_PRIVATE_32_Z147_SUPPLYINLET,Air,3
 Node,968,OFFICE_PRIVATE_32_Z147_COOLC-HEATCNODE,Air,6
 Node,969,OFFICE_PRIVATE_32_Z147_HEATC-FANNODE,Air,5
 Node,970,OFFICE_PRIVATE_32_Z147_SUPPLYEQUIPMENTOUTLETNODE,Air,3
 Node,971,STORAGE_32_Z148_SUPPLYINLET,Air,3
 Node,972,STORAGE_32_Z148_COOLC-HEATCNODE,Air,6
 Node,973,STORAGE_32_Z148_HEATC-FANNODE,Air,5
 Node,974,STORAGE_32_Z148_SUPPLYEQUIPMENTOUTLETNODE,Air,3
 Node,975,CONFERENCE_33_Z149_SUPPLYINLET,Air,3
 Node,976,CONFERENCE_33_Z149_COOLC-HEATCNODE,Air,6
 Node,977,CONFERENCE_33_Z149_HEATC-FANNODE,Air,5
 Node,978,CONFERENCE_33_Z149_SUPPLYEQUIPMENTOUTLETNODE,Air,3
 Node,979,BREAK_ROOM_33_Z150_SUPPLYINLET,Air,3
 Node,980,BREAK_ROOM_33_Z150_COOLC-HEATCNODE,Air,6
 Node,981,BREAK_ROOM_33_Z150_HEATC-FANNODE,Air,5
 Node,982,BREAK_ROOM_33_Z150_SUPPLYEQUIPMENTOUTLETNODE,Air,3
 Node,983,OFFICE_PRIVATE_33_Z151_SUPPLYINLET,Air,3
 Node,984,OFFICE_PRIVATE_33_Z151_COOLC-HEATCNODE,Air,6
 Node,985,OFFICE_PRIVATE_33_Z151_HEATC-FANNODE,Air,5
 Node,986,OFFICE_PRIVATE_33_Z151_SUPPLYEQUIPMENTOUTLETNODE,Air,3
 Node,987,STORAGE_33_Z152_SUPPLYINLET,Air,3
 Node,988,STORAGE_33_Z152_COOLC-HEATCNODE,Air,6
 Node,989,STORAGE_33_Z152_HEATC-FANNODE,Air,5
 Node,990,STORAGE_33_Z152_SUPPLYEQUIPMENTOUTLETNODE,Air,3
 Node,991,CONFERENCE_34_Z153_SUPPLYINLET,Air,3
 Node,992,CONFERENCE_34_Z153_COOLC-HEATCNODE,Air,6
 Node,993,CONFERENCE_34_Z153_HEATC-FANNODE,Air,5
 Node,994,CONFERENCE_34_Z153_SUPPLYEQUIPMENTOUTLETNODE,Air,3
 Node,995,BREAK_ROOM_34_Z154_SUPPLYINLET,Air,3
 Node,996,BREAK_ROOM_34_Z154_COOLC-HEATCNODE,Air,6
 Node,997,BREAK_ROOM_34_Z154_HEATC-FANNODE,Air,5
 Node,998,BREAK_ROOM_34_Z154_SUPPLYEQUIPMENTOUTLETNODE,Air,3
 Node,999,MECHANICAL_34_Z155_SUPPLYINLET,Air,3
 Node,1000,MECHANICAL_34_Z155_COOLC-HEATCNODE,Air,6
 Node,1001,MECHANICAL_34_Z155_HEATC-FANNODE,Air,5
 Node,1002,MECHANICAL_34_Z155_SUPPLYEQUIPMENTOUTLETNODE,Air,3
 Node,1003,OFFICE_PRIVATE_34_Z156_SUPPLYINLET,Air,3
 Node,1004,OFFICE_PRIVATE_34_Z156_COOLC-HEATCNODE,Air,6
 Node,1005,OFFICE_PRIVATE_34_Z156_HEATC-FANNODE,Air,5
 Node,1006,OFFICE_PRIVATE_34_Z156_SUPPLYEQUIPMENTOUTLETNODE,Air,3
 Node,1007,STORAGE_34_Z157_SUPPLYINLET,Air,3
 Node,1008,STORAGE_34_Z157_COOLC-HEATCNODE,Air,6
 Node,1009,STORAGE_34_Z157_HEATC-FANNODE,Air,5
 Node,1010,STORAGE_34_Z157_SUPPLYEQUIPMENTOUTLETNODE,Air,3
 Node,1011,LOBBY_35_Z158_SUPPLYINLET,Air,3
 Node,1012,LOBBY_35_Z158_COOLC-HEATCNODE,Air,6
 Node,1013,LOBBY_35_Z158_HEATC-FANNODE,Air,5
 Node,1014,LOBBY_35_Z158_SUPPLYEQUIPMENTOUTLETNODE,Air,3
 Node,1015,CONFERENCE_35_Z159_SUPPLYINLET,Air,3
 Node,1016,CONFERENCE_35_Z159_COOLC-HEATCNODE,Air,6
 Node,1017,CONFERENCE_35_Z159_HEATC-FANNODE,Air,5
 Node,1018,CONFERENCE_35_Z159_SUPPLYEQUIPMENTOUTLETNODE,Air,3
 Node,1019,BREAK_ROOM_35_Z160_SUPPLYINLET,Air,3
 Node,1020,BREAK_ROOM_35_Z160_COOLC-HEATCNODE,Air,6
 Node,1021,BREAK_ROOM_35_Z160_HEATC-FANNODE,Air,5
 Node,1022,BREAK_ROOM_35_Z160_SUPPLYEQUIPMENTOUTLETNODE,Air,3
 Node,1023,MECHANICAL_35_Z161_SUPPLYINLET,Air,3
 Node,1024,MECHANICAL_35_Z161_COOLC-HEATCNODE,Air,6
 Node,1025,MECHANICAL_35_Z161_HEATC-FANNODE,Air,5
 Node,1026,MECHANICAL_35_Z161_SUPPLYEQUIPMENTOUTLETNODE,Air,3
 Node,1027,OFFICE_OPEN_35_Z162_SUPPLYINLET,Air,3
 Node,1028,OFFICE_OPEN_35_Z162_COOLC-HEATCNODE,Air,6
 Node,1029,OFFICE_OPEN_35_Z162_HEATC-FANNODE,Air,5
 Node,1030,OFFICE_OPEN_35_Z162_SUPPLYEQUIPMENTOUTLETNODE,Air,3
 Node,1031,OFFICE_PRIVATE_35_Z163_SUPPLYINLET,Air,3
 Node,1032,OFFICE_PRIVATE_35_Z163_COOLC-HEATCNODE,Air,6
 Node,1033,OFFICE_PRIVATE_35_Z163_HEATC-FANNODE,Air,5
 Node,1034,OFFICE_PRIVATE_35_Z163_SUPPLYEQUIPMENTOUTLETNODE,Air,3
 Node,1035,STORAGE_35_Z164_SUPPLYINLET,Air,3
 Node,1036,STORAGE_35_Z164_COOLC-HEATCNODE,Air,6
 Node,1037,STORAGE_35_Z164_HEATC-FANNODE,Air,5
 Node,1038,STORAGE_35_Z164_SUPPLYEQUIPMENTOUTLETNODE,Air,3
 Node,1039,CONFERENCE_36_Z165_SUPPLYINLET,Air,3
 Node,1040,CONFERENCE_36_Z165_COOLC-HEATCNODE,Air,6
 Node,1041,CONFERENCE_36_Z165_HEATC-FANNODE,Air,5
 Node,1042,CONFERENCE_36_Z165_SUPPLYEQUIPMENTOUTLETNODE,Air,3
 Node,1043,MECHANICAL_36_Z166_SUPPLYINLET,Air,3
 Node,1044,MECHANICAL_36_Z166_COOLC-HEATCNODE,Air,6
 Node,1045,MECHANICAL_36_Z166_HEATC-FANNODE,Air,5
 Node,1046,MECHANICAL_36_Z166_SUPPLYEQUIPMENTOUTLETNODE,Air,3
 Node,1047,CONFERENCE_37_Z167_SUPPLYINLET,Air,3
 Node,1048,CONFERENCE_37_Z167_COOLC-HEATCNODE,Air,6
 Node,1049,CONFERENCE_37_Z167_HEATC-FANNODE,Air,5
 Node,1050,CONFERENCE_37_Z167_SUPPLYEQUIPMENTOUTLETNODE,Air,3
 Node,1051,MECHANICAL_37_Z168_SUPPLYINLET,Air,3
 Node,1052,MECHANICAL_37_Z168_COOLC-HEATCNODE,Air,6
 Node,1053,MECHANICAL_37_Z168_HEATC-FANNODE,Air,5
 Node,1054,MECHANICAL_37_Z168_SUPPLYEQUIPMENTOUTLETNODE,Air,3
 Node,1055,OFFICE_PRIVATE_37_Z169_SUPPLYINLET,Air,3
 Node,1056,OFFICE_PRIVATE_37_Z169_COOLC-HEATCNODE,Air,6
 Node,1057,OFFICE_PRIVATE_37_Z169_HEATC-FANNODE,Air,5
 Node,1058,OFFICE_PRIVATE_37_Z169_SUPPLYEQUIPMENTOUTLETNODE,Air,3
 Node,1059,STORAGE_37_Z170_SUPPLYINLET,Air,3
 Node,1060,STORAGE_37_Z170_COOLC-HEATCNODE,Air,6
 Node,1061,STORAGE_37_Z170_HEATC-FANNODE,Air,5
 Node,1062,STORAGE_37_Z170_SUPPLYEQUIPMENTOUTLETNODE,Air,3
 Node,1063,BREAK_ROOM_38_Z171_SUPPLYINLET,Air,3
 Node,1064,BREAK_ROOM_38_Z171_COOLC-HEATCNODE,Air,6
 Node,1065,BREAK_ROOM_38_Z171_HEATC-FANNODE,Air,5
 Node,1066,BREAK_ROOM_38_Z171_SUPPLYEQUIPMENTOUTLETNODE,Air,3
 Node,1067,OFFICE_PRIVATE_38_Z172_SUPPLYINLET,Air,3
 Node,1068,OFFICE_PRIVATE_38_Z172_COOLC-HEATCNODE,Air,6
 Node,1069,OFFICE_PRIVATE_38_Z172_HEATC-FANNODE,Air,5
 Node,1070,OFFICE_PRIVATE_38_Z172_SUPPLYEQUIPMENTOUTLETNODE,Air,3
 Node,1071,BREAK_ROOM_39_Z173_SUPPLYINLET,Air,3
 Node,1072,BREAK_ROOM_39_Z173_COOLC-HEATCNODE,Air,6
 Node,1073,BREAK_ROOM_39_Z173_HEATC-FANNODE,Air,5
 Node,1074,BREAK_ROOM_39_Z173_SUPPLYEQUIPMENTOUTLETNODE,Air,3
 Node,1075,MECHANICAL_39_Z174_SUPPLYINLET,Air,3
 Node,1076,MECHANICAL_39_Z174_COOLC-HEATCNODE,Air,6
 Node,1077,MECHANICAL_39_Z174_HEATC-FANNODE,Air,5
 Node,1078,MECHANICAL_39_Z174_SUPPLYEQUIPMENTOUTLETNODE,Air,3
 Node,1079,OFFICE_OPEN_39_Z175_SUPPLYINLET,Air,3
 Node,1080,OFFICE_OPEN_39_Z175_COOLC-HEATCNODE,Air,6
 Node,1081,OFFICE_OPEN_39_Z175_HEATC-FANNODE,Air,5
 Node,1082,OFFICE_OPEN_39_Z175_SUPPLYEQUIPMENTOUTLETNODE,Air,3
 Node,1083,OFFICE_PRIVATE_39_Z176_SUPPLYINLET,Air,3
 Node,1084,OFFICE_PRIVATE_39_Z176_COOLC-HEATCNODE,Air,6
 Node,1085,OFFICE_PRIVATE_39_Z176_HEATC-FANNODE,Air,5
 Node,1086,OFFICE_PRIVATE_39_Z176_SUPPLYEQUIPMENTOUTLETNODE,Air,3
 Node,1087,STORAGE_39_Z177_SUPPLYINLET,Air,3
 Node,1088,STORAGE_39_Z177_COOLC-HEATCNODE,Air,6
 Node,1089,STORAGE_39_Z177_HEATC-FANNODE,Air,5
 Node,1090,STORAGE_39_Z177_SUPPLYEQUIPMENTOUTLETNODE,Air,3
 Node,1091,LOBBY_40_Z178_SUPPLYINLET,Air,3
 Node,1092,LOBBY_40_Z178_COOLC-HEATCNODE,Air,6
 Node,1093,LOBBY_40_Z178_HEATC-FANNODE,Air,5
 Node,1094,LOBBY_40_Z178_SUPPLYEQUIPMENTOUTLETNODE,Air,3
 Node,1095,CONFERENCE_40_Z179_SUPPLYINLET,Air,3
 Node,1096,CONFERENCE_40_Z179_COOLC-HEATCNODE,Air,6
 Node,1097,CONFERENCE_40_Z179_HEATC-FANNODE,Air,5
 Node,1098,CONFERENCE_40_Z179_SUPPLYEQUIPMENTOUTLETNODE,Air,3
 Node,1099,BREAK_ROOM_40_Z180_SUPPLYINLET,Air,3
 Node,1100,BREAK_ROOM_40_Z180_COOLC-HEATCNODE,Air,6
 Node,1101,BREAK_ROOM_40_Z180_HEATC-FANNODE,Air,5
 Node,1102,BREAK_ROOM_40_Z180_SUPPLYEQUIPMENTOUTLETNODE,Air,3
 Node,1103,OFFICE_PRIVATE_40_Z181_SUPPLYINLET,Air,3
 Node,1104,OFFICE_PRIVATE_40_Z181_COOLC-HEATCNODE,Air,6
 Node,1105,OFFICE_PRIVATE_40_Z181_HEATC-FANNODE,Air,5
 Node,1106,OFFICE_PRIVATE_40_Z181_SUPPLYEQUIPMENTOUTLETNODE,Air,3
 Node,1107,STORAGE_40_Z182_SUPPLYINLET,Air,3
 Node,1108,STORAGE_40_Z182_COOLC-HEATCNODE,Air,6
 Node,1109,STORAGE_40_Z182_HEATC-FANNODE,Air,5
 Node,1110,STORAGE_40_Z182_SUPPLYEQUIPMENTOUTLETNODE,Air,3
 Node,1111,MECHANICAL_41_Z183_SUPPLYINLET,Air,3
 Node,1112,MECHANICAL_41_Z183_COOLC-HEATCNODE,Air,6
 Node,1113,MECHANICAL_41_Z183_HEATC-FANNODE,Air,5
 Node,1114,MECHANICAL_41_Z183_SUPPLYEQUIPMENTOUTLETNODE,Air,3
 Node,1115,OFFICE_PRIVATE_41_Z184_SUPPLYINLET,Air,3
 Node,1116,OFFICE_PRIVATE_41_Z184_COOLC-HEATCNODE,Air,6
 Node,1117,OFFICE_PRIVATE_41_Z184_HEATC-FANNODE,Air,5
 Node,1118,OFFICE_PRIVATE_41_Z184_SUPPLYEQUIPMENTOUTLETNODE,Air,3
 Node,1119,STORAGE_41_Z185_SUPPLYINLET,Air,3
 Node,1120,STORAGE_41_Z185_COOLC-HEATCNODE,Air,6
 Node,1121,STORAGE_41_Z185_HEATC-FANNODE,Air,5
 Node,1122,STORAGE_41_Z185_SUPPLYEQUIPMENTOUTLETNODE,Air,3
 Node,1123,CONFERENCE_42_Z186_SUPPLYINLET,Air,3
 Node,1124,CONFERENCE_42_Z186_COOLC-HEATCNODE,Air,6
 Node,1125,CONFERENCE_42_Z186_HEATC-FANNODE,Air,5
 Node,1126,CONFERENCE_42_Z186_SUPPLYEQUIPMENTOUTLETNODE,Air,3
 Node,1127,MECHANICAL_42_Z187_SUPPLYINLET,Air,3
 Node,1128,MECHANICAL_42_Z187_COOLC-HEATCNODE,Air,6
 Node,1129,MECHANICAL_42_Z187_HEATC-FANNODE,Air,5
 Node,1130,MECHANICAL_42_Z187_SUPPLYEQUIPMENTOUTLETNODE,Air,3
 Node,1131,OFFICE_OPEN_42_Z188_SUPPLYINLET,Air,3
 Node,1132,OFFICE_OPEN_42_Z188_COOLC-HEATCNODE,Air,6
 Node,1133,OFFICE_OPEN_42_Z188_HEATC-FANNODE,Air,5
 Node,1134,OFFICE_OPEN_42_Z188_SUPPLYEQUIPMENTOUTLETNODE,Air,3
 Node,1135,OFFICE_PRIVATE_42_Z189_SUPPLYINLET,Air,3
 Node,1136,OFFICE_PRIVATE_42_Z189_COOLC-HEATCNODE,Air,6
 Node,1137,OFFICE_PRIVATE_42_Z189_HEATC-FANNODE,Air,5
 Node,1138,OFFICE_PRIVATE_42_Z189_SUPPLYEQUIPMENTOUTLETNODE,Air,3
 Node,1139,STORAGE_42_Z190_SUPPLYINLET,Air,3
 Node,1140,STORAGE_42_Z190_COOLC-HEATCNODE,Air,6
 Node,1141,STORAGE_42_Z190_HEATC-FANNODE,Air,5
 Node,1142,STORAGE_42_Z190_SUPPLYEQUIPMENTOUTLETNODE,Air,3
 Node,1143,CONFERENCE_43_Z191_SUPPLYINLET,Air,3
 Node,1144,CONFERENCE_43_Z191_COOLC-HEATCNODE,Air,6
 Node,1145,CONFERENCE_43_Z191_HEATC-FANNODE,Air,5
 Node,1146,CONFERENCE_43_Z191_SUPPLYEQUIPMENTOUTLETNODE,Air,3
 Node,1147,OFFICE_OPEN_43_Z192_SUPPLYINLET,Air,3
 Node,1148,OFFICE_OPEN_43_Z192_COOLC-HEATCNODE,Air,6
 Node,1149,OFFICE_OPEN_43_Z192_HEATC-FANNODE,Air,5
 Node,1150,OFFICE_OPEN_43_Z192_SUPPLYEQUIPMENTOUTLETNODE,Air,3
 Node,1151,OFFICE_PRIVATE_43_Z193_SUPPLYINLET,Air,3
 Node,1152,OFFICE_PRIVATE_43_Z193_COOLC-HEATCNODE,Air,6
 Node,1153,OFFICE_PRIVATE_43_Z193_HEATC-FANNODE,Air,5
 Node,1154,OFFICE_PRIVATE_43_Z193_SUPPLYEQUIPMENTOUTLETNODE,Air,3
 Node,1155,STORAGE_43_Z194_SUPPLYINLET,Air,3
 Node,1156,STORAGE_43_Z194_COOLC-HEATCNODE,Air,6
 Node,1157,STORAGE_43_Z194_HEATC-FANNODE,Air,5
 Node,1158,STORAGE_43_Z194_SUPPLYEQUIPMENTOUTLETNODE,Air,3
 Node,1159,LOBBY_44_Z195_SUPPLYINLET,Air,3
 Node,1160,LOBBY_44_Z195_COOLC-HEATCNODE,Air,6
 Node,1161,LOBBY_44_Z195_HEATC-FANNODE,Air,5
 Node,1162,LOBBY_44_Z195_SUPPLYEQUIPMENTOUTLETNODE,Air,3
 Node,1163,OFFICE_PRIVATE_44_Z196_SUPPLYINLET,Air,3
 Node,1164,OFFICE_PRIVATE_44_Z196_COOLC-HEATCNODE,Air,6
 Node,1165,OFFICE_PRIVATE_44_Z196_HEATC-FANNODE,Air,5
 Node,1166,OFFICE_PRIVATE_44_Z196_SUPPLYEQUIPMENTOUTLETNODE,Air,3
 Node,1167,STORAGE_44_Z197_SUPPLYINLET,Air,3
 Node,1168,STORAGE_44_Z197_COOLC-HEATCNODE,Air,6
 Node,1169,STORAGE_44_Z197_HEATC-FANNODE,Air,5
 Node,1170,STORAGE_44_Z197_SUPPLYEQUIPMENTOUTLETNODE,Air,3
 Node,1171,LOBBY_45_Z198_SUPPLYINLET,Air,3
 Node,1172,LOBBY_45_Z198_COOLC-HEATCNODE,Air,6
 Node,1173,LOBBY_45_Z198_HEATC-FANNODE,Air,5
 Node,1174,LOBBY_45_Z198_SUPPLYEQUIPMENTOUTLETNODE,Air,3
 Node,1175,CONFERENCE_45_Z199_SUPPLYINLET,Air,3
 Node,1176,CONFERENCE_45_Z199_COOLC-HEATCNODE,Air,6
 Node,1177,CONFERENCE_45_Z199_HEATC-FANNODE,Air,5
 Node,1178,CONFERENCE_45_Z199_SUPPLYEQUIPMENTOUTLETNODE,Air,3
 Node,1179,BREAK_ROOM_45_Z200_SUPPLYINLET,Air,3
 Node,1180,BREAK_ROOM_45_Z200_COOLC-HEATCNODE,Air,6
 Node,1181,BREAK_ROOM_45_Z200_HEATC-FANNODE,Air,5
 Node,1182,BREAK_ROOM_45_Z200_SUPPLYEQUIPMENTOUTLETNODE,Air,3
 Node,1183,MECHANICAL_45_Z201_SUPPLYINLET,Air,3
 Node,1184,MECHANICAL_45_Z201_COOLC-HEATCNODE,Air,6
 Node,1185,MECHANICAL_45_Z201_HEATC-FANNODE,Air,5
 Node,1186,MECHANICAL_45_Z201_SUPPLYEQUIPMENTOUTLETNODE,Air,3
 Node,1187,STORAGE_45_Z202_SUPPLYINLET,Air,3
 Node,1188,STORAGE_45_Z202_COOLC-HEATCNODE,Air,6
 Node,1189,STORAGE_45_Z202_HEATC-FANNODE,Air,5
 Node,1190,STORAGE_45_Z202_SUPPLYEQUIPMENTOUTLETNODE,Air,3
 Node,1191,BREAK_ROOM_46_Z203_SUPPLYINLET,Air,3
 Node,1192,BREAK_ROOM_46_Z203_COOLC-HEATCNODE,Air,6
 Node,1193,BREAK_ROOM_46_Z203_HEATC-FANNODE,Air,5
 Node,1194,BREAK_ROOM_46_Z203_SUPPLYEQUIPMENTOUTLETNODE,Air,3
 Node,1195,OFFICE_OPEN_46_Z204_SUPPLYINLET,Air,3
 Node,1196,OFFICE_OPEN_46_Z204_COOLC-HEATCNODE,Air,6
 Node,1197,OFFICE_OPEN_46_Z204_HEATC-FANNODE,Air,5
 Node,1198,OFFICE_OPEN_46_Z204_SUPPLYEQUIPMENTOUTLETNODE,Air,3
 Node,1199,STORAGE_46_Z205_SUPPLYINLET,Air,3
 Node,1200,STORAGE_46_Z205_COOLC-HEATCNODE,Air,6
 Node,1201,STORAGE_46_Z205_HEATC-FANNODE,Air,5
 Node,1202,STORAGE_46_Z205_SUPPLYEQUIPMENTOUTLETNODE,Air,3
 Node,1203,LOBBY_47_Z206_SUPPLYINLET,Air,3
 Node,1204,LOBBY_47_Z206_COOLC-HEATCNODE,Air,6
 Node,1205,LOBBY_47_Z206_HEATC-FANNODE,Air,5
 Node,1206,LOBBY_47_Z206_SUPPLYEQUIPMENTOUTLETNODE,Air,3
 Node,1207,CONFERENCE_47_Z207_SUPPLYINLET,Air,3
 Node,1208,CONFERENCE_47_Z207_COOLC-HEATCNODE,Air,6
 Node,1209,CONFERENCE_47_Z207_HEATC-FANNODE,Air,5
 Node,1210,CONFERENCE_47_Z207_SUPPLYEQUIPMENTOUTLETNODE,Air,3
 Node,1211,BREAK_ROOM_47_Z208_SUPPLYINLET,Air,3
 Node,1212,BREAK_ROOM_47_Z208_COOLC-HEATCNODE,Air,6
 Node,1213,BREAK_ROOM_47_Z208_HEATC-FANNODE,Air,5
 Node,1214,BREAK_ROOM_47_Z208_SUPPLYEQUIPMENTOUTLETNODE,Air,3
 Node,1215,MECHANICAL_47_Z209_SUPPLYINLET,Air,3
 Node,1216,MECHANICAL_47_Z209_COOLC-HEATCNODE,Air,6
 Node,1217,MECHANICAL_47_Z209_HEATC-FANNODE,Air,5
 Node,1218,MECHANICAL_47_Z209_SUPPLYEQUIPMENTOUTLETNODE,Air,3
 Node,1219,OFFICE_PRIVATE_47_Z210_SUPPLYINLET,Air,3
 Node,1220,OFFICE_PRIVATE_47_Z210_COOLC-HEATCNODE,Air,6
 Node,1221,OFFICE_PRIVATE_47_Z210_HEATC-FANNODE,Air,5
 Node,1222,OFFICE_PRIVATE_47_Z210_SUPPLYEQUIPMENTOUTLETNODE,Air,3
 Node,1223,STORAGE_47_Z211_SUPPLYINLET,Air,3
 Node,1224,STORAGE_47_Z211_COOLC-HEATCNODE,Air,6
 Node,1225,STORAGE_47_Z211_HEATC-FANNODE,Air,5
 Node,1226,STORAGE_47_Z211_SUPPLYEQUIPMENTOUTLETNODE,Air,3
 Node,1227,LOBBY_48_Z212_SUPPLYINLET,Air,3
 Node,1228,LOBBY_48_Z212_COOLC-HEATCNODE,Air,6
 Node,1229,LOBBY_48_Z212_HEATC-FANNODE,Air,5
 Node,1230,LOBBY_48_Z212_SUPPLYEQUIPMENTOUTLETNODE,Air,3
 Node,1231,CONFERENCE_48_Z213_SUPPLYINLET,Air,3
 Node,1232,CONFERENCE_48_Z213_COOLC-HEATCNODE,Air,6
 Node,1233,CONFERENCE_48_Z213_HEATC-FANNODE,Air,5
 Node,1234,CONFERENCE_48_Z213_SUPPLYEQUIPMENTOUTLETNODE,Air,3
 Node,1235,BREAK_ROOM_48_Z214_SUPPLYINLET,Air,3
 Node,1236,BREAK_ROOM_48_Z214_COOLC-HEATCNODE,Air,6
 Node,1237,BREAK_ROOM_48_Z214_HEATC-FANNODE,Air,5
 Node,1238,BREAK_ROOM_48_Z214_SUPPLYEQUIPMENTOUTLETNODE,Air,3
 Node,1239,MECHANICAL_48_Z215_SUPPLYINLET,Air,3
 Node,1240,MECHANICAL_48_Z215_COOLC-HEATCNODE,Air,6
 Node,1241,MECHANICAL_48_Z215_HEATC-FANNODE,Air,5
 Node,1242,MECHANICAL_48_Z215_SUPPLYEQUIPMENTOUTLETNODE,Air,3
 Node,1243,OFFICE_OPEN_48_Z216_SUPPLYINLET,Air,3
 Node,1244,OFFICE_OPEN_48_Z216_COOLC-HEATCNODE,Air,6
 Node,1245,OFFICE_OPEN_48_Z216_HEATC-FANNODE,Air,5
 Node,1246,OFFICE_OPEN_48_Z216_SUPPLYEQUIPMENTOUTLETNODE,Air,3
 Node,1247,STORAGE_48_Z217_SUPPLYINLET,Air,3
 Node,1248,STORAGE_48_Z217_COOLC-HEATCNODE,Air,6
 Node,1249,STORAGE_48_Z217_HEATC-FANNODE,Air,5
 Node,1250,STORAGE_48_Z217_SUPPLYEQUIPMENTOUTLETNODE,Air,3
 Node,1251,LOBBY_49_Z218_SUPPLYINLET,Air,3
 Node,1252,LOBBY_49_Z218_COOLC-HEATCNODE,Air,6
 Node,1253,LOBBY_49_Z218_HEATC-FANNODE,Air,5
 Node,1254,LOBBY_49_Z218_SUPPLYEQUIPMENTOUTLETNODE,Air,3
 Node,1255,CONFERENCE_49_Z219_SUPPLYINLET,Air,3
 Node,1256,CONFERENCE_49_Z219_COOLC-HEATCNODE,Air,6
 Node,1257,CONFERENCE_49_Z219_HEATC-FANNODE,Air,5
 Node,1258,CONFERENCE_49_Z219_SUPPLYEQUIPMENTOUTLETNODE,Air,3
 Node,1259,BREAK_ROOM_49_Z220_SUPPLYINLET,Air,3
 Node,1260,BREAK_ROOM_49_Z220_COOLC-HEATCNODE,Air,6
 Node,1261,BREAK_ROOM_49_Z220_HEATC-FANNODE,Air,5
 Node,1262,BREAK_ROOM_49_Z220_SUPPLYEQUIPMENTOUTLETNODE,Air,3
 Node,1263,MECHANICAL_49_Z221_SUPPLYINLET,Air,3
 Node,1264,MECHANICAL_49_Z221_COOLC-HEATCNODE,Air,6
 Node,1265,MECHANICAL_49_Z221_HEATC-FANNODE,Air,5
 Node,1266,MECHANICAL_49_Z221_SUPPLYEQUIPMENTOUTLETNODE,Air,3
 Node,1267,OFFICE_OPEN_49_Z222_SUPPLYINLET,Air,3
 Node,1268,OFFICE_OPEN_49_Z222_COOLC-HEATCNODE,Air,6
 Node,1269,OFFICE_OPEN_49_Z222_HEATC-FANNODE,Air,5
 Node,1270,OFFICE_OPEN_49_Z222_SUPPLYEQUIPMENTOUTLETNODE,Air,3
 Node,1271,OFFICE_PRIVATE_49_Z223_SUPPLYINLET,Air,3
 Node,1272,OFFICE_PRIVATE_49_Z223_COOLC-HEATCNODE,Air,6
 Node,1273,OFFICE_PRIVATE_49_Z223_HEATC-FANNODE,Air,5
 Node,1274,OFFICE_PRIVATE_49_Z223_SUPPLYEQUIPMENTOUTLETNODE,Air,3
 Node,1275,STORAGE_49_Z224_SUPPLYINLET,Air,3
 Node,1276,STORAGE_49_Z224_COOLC-HEATCNODE,Air,6
 Node,1277,STORAGE_49_Z224_HEATC-FANNODE,Air,5
 Node,1278,STORAGE_49_Z224_SUPPLYEQUIPMENTOUTLETNODE,Air,3
 Node,1279,LOBBY_50_Z225_SUPPLYINLET,Air,3
 Node,1280,LOBBY_50_Z225_COOLC-HEATCNODE,Air,6
 Node,1281,LOBBY_50_Z225_HEATC-FANNODE,Air,5
 Node,1282,LOBBY_50_Z225_SUPPLYEQUIPMENTOUTLETNODE,Air,3
 Node,1283,BREAK_ROOM_50_Z226_SUPPLYINLET,Air,3
 Node,1284,BREAK_ROOM_50_Z226_COOLC-HEATCNODE,Air,6
 Node,1285,BREAK_ROOM_50_Z226_HEATC-FANNODE,Air,5
 Node,1286,BREAK_ROOM_50_Z226_SUPPLYEQUIPMENTOUTLETNODE,Air,3
 Node,1287,MECHANICAL_50_Z227_SUPPLYINLET,Air,3
 Node,1288,MECHANICAL_50_Z227_COOLC-HEATCNODE,Air,6
 Node,1289,MECHANICAL_50_Z227_HEATC-FANNODE,Air,5
 Node,1290,MECHANICAL_50_Z227_SUPPLYEQUIPMENTOUTLETNODE,Air,3
 Node,1291,OFFICE_OPEN_50_Z228_SUPPLYINLET,Air,3
 Node,1292,OFFICE_OPEN_50_Z228_COOLC-HEATCNODE,Air,6
 Node,1293,OFFICE_OPEN_50_Z228_HEATC-FANNODE,Air,5
 Node,1294,OFFICE_OPEN_50_Z228_SUPPLYEQUIPMENTOUTLETNODE,Air,3
 Node,1295,OFFICE_PRIVATE_50_Z229_SUPPLYINLET,Air,3
 Node,1296,OFFICE_PRIVATE_50_Z229_COOLC-HEATCNODE,Air,6
 Node,1297,OFFICE_PRIVATE_50_Z229_HEATC-FANNODE,Air,5
 Node,1298,OFFICE_PRIVATE_50_Z229_SUPPLYEQUIPMENTOUTLETNODE,Air,3
 Node,1299,LOBBY_51_Z230_SUPPLYINLET,Air,3
 Node,1300,LOBBY_51_Z230_COOLC-HEATCNODE,Air,6
 Node,1301,LOBBY_51_Z230_HEATC-FANNODE,Air,5
 Node,1302,LOBBY_51_Z230_SUPPLYEQUIPMENTOUTLETNODE,Air,3
 Node,1303,CONFERENCE_51_Z231_SUPPLYINLET,Air,3
 Node,1304,CONFERENCE_51_Z231_COOLC-HEATCNODE,Air,6
 Node,1305,CONFERENCE_51_Z231_HEATC-FANNODE,Air,5
 Node,1306,CONFERENCE_51_Z231_SUPPLYEQUIPMENTOUTLETNODE,Air,3
 Node,1307,BREAK_ROOM_51_Z232_SUPPLYINLET,Air,3
 Node,1308,BREAK_ROOM_51_Z232_COOLC-HEATCNODE,Air,6
 Node,1309,BREAK_ROOM_51_Z232_HEATC-FANNODE,Air,5
 Node,1310,BREAK_ROOM_51_Z232_SUPPLYEQUIPMENTOUTLETNODE,Air,3
 Node,1311,MECHANICAL_51_Z233_SUPPLYINLET,Air,3
 Node,1312,MECHANICAL_51_Z233_COOLC-HEATCNODE,Air,6
 Node,1313,MECHANICAL_51_Z233_HEATC-FANNODE,Air,5
 Node,1314,MECHANICAL_51_Z233_SUPPLYEQUIPMENTOUTLETNODE,Air,3
 Node,1315,OFFICE_PRIVATE_51_Z234_SUPPLYINLET,Air,3
 Node,1316,OFFICE_PRIVATE_51_Z234_COOLC-HEATCNODE,Air,6
 Node,1317,OFFICE_PRIVATE_51_Z234_HEATC-FANNODE,Air,5
 Node,1318,OFFICE_PRIVATE_51_Z234_SUPPLYEQUIPMENTOUTLETNODE,Air,3
 Node,1319,STORAGE_51_Z235_SUPPLYINLET,Air,3
 Node,1320,STORAGE_51_Z235_COOLC-HEATCNODE,Air,6
 Node,1321,STORAGE_51_Z235_HEATC-FANNODE,Air,5
 Node,1322,STORAGE_51_Z235_SUPPLYEQUIPMENTOUTLETNODE,Air,3
 Node,1323,LOBBY_52_Z236_SUPPLYINLET,Air,3
 Node,1324,LOBBY_52_Z236_COOLC-HEATCNODE,Air,6
 Node,1325,LOBBY_52_Z236_HEATC-FANNODE,Air,5
 Node,1326,LOBBY_52_Z236_SUPPLYEQUIPMENTOUTLETNODE,Air,3
 Node,1327,CONFERENCE_52_Z237_SUPPLYINLET,Air,3
 Node,1328,CONFERENCE_52_Z237_COOLC-HEATCNODE,Air,6
 Node,1329,CONFERENCE_52_Z237_HEATC-FANNODE,Air,5
 Node,1330,CONFERENCE_52_Z237_SUPPLYEQUIPMENTOUTLETNODE,Air,3
 Node,1331,MECHANICAL_52_Z238_SUPPLYINLET,Air,3
 Node,1332,MECHANICAL_52_Z238_COOLC-HEATCNODE,Air,6
 Node,1333,MECHANICAL_52_Z238_HEATC-FANNODE,Air,5
 Node,1334,MECHANICAL_52_Z238_SUPPLYEQUIPMENTOUTLETNODE,Air,3
 Node,1335,OFFICE_OPEN_52_Z239_SUPPLYINLET,Air,3
 Node,1336,OFFICE_OPEN_52_Z239_COOLC-HEATCNODE,Air,6
 Node,1337,OFFICE_OPEN_52_Z239_HEATC-FANNODE,Air,5
 Node,1338,OFFICE_OPEN_52_Z239_SUPPLYEQUIPMENTOUTLETNODE,Air,3
 Node,1339,OFFICE_PRIVATE_52_Z240_SUPPLYINLET,Air,3
 Node,1340,OFFICE_PRIVATE_52_Z240_COOLC-HEATCNODE,Air,6
 Node,1341,OFFICE_PRIVATE_52_Z240_HEATC-FANNODE,Air,5
 Node,1342,OFFICE_PRIVATE_52_Z240_SUPPLYEQUIPMENTOUTLETNODE,Air,3
 Node,1343,STORAGE_52_Z241_SUPPLYINLET,Air,3
 Node,1344,STORAGE_52_Z241_COOLC-HEATCNODE,Air,6
 Node,1345,STORAGE_52_Z241_HEATC-FANNODE,Air,5
 Node,1346,STORAGE_52_Z241_SUPPLYEQUIPMENTOUTLETNODE,Air,3
 Node,1347,CONFERENCE_53_Z242_SUPPLYINLET,Air,3
 Node,1348,CONFERENCE_53_Z242_COOLC-HEATCNODE,Air,6
 Node,1349,CONFERENCE_53_Z242_HEATC-FANNODE,Air,5
 Node,1350,CONFERENCE_53_Z242_SUPPLYEQUIPMENTOUTLETNODE,Air,3
 Node,1351,MECHANICAL_53_Z243_SUPPLYINLET,Air,3
 Node,1352,MECHANICAL_53_Z243_COOLC-HEATCNODE,Air,6
 Node,1353,MECHANICAL_53_Z243_HEATC-FANNODE,Air,5
 Node,1354,MECHANICAL_53_Z243_SUPPLYEQUIPMENTOUTLETNODE,Air,3
 Node,1355,OFFICE_OPEN_53_Z244_SUPPLYINLET,Air,3
 Node,1356,OFFICE_OPEN_53_Z244_COOLC-HEATCNODE,Air,6
 Node,1357,OFFICE_OPEN_53_Z244_HEATC-FANNODE,Air,5
 Node,1358,OFFICE_OPEN_53_Z244_SUPPLYEQUIPMENTOUTLETNODE,Air,3
 Node,1359,STORAGE_53_Z245_SUPPLYINLET,Air,3
 Node,1360,STORAGE_53_Z245_COOLC-HEATCNODE,Air,6
 Node,1361,STORAGE_53_Z245_HEATC-FANNODE,Air,5
 Node,1362,STORAGE_53_Z245_SUPPLYEQUIPMENTOUTLETNODE,Air,3
 Node,1363,CONFERENCE_54_Z246_SUPPLYINLET,Air,3
 Node,1364,CONFERENCE_54_Z246_COOLC-HEATCNODE,Air,6
 Node,1365,CONFERENCE_54_Z246_HEATC-FANNODE,Air,5
 Node,1366,CONFERENCE_54_Z246_SUPPLYEQUIPMENTOUTLETNODE,Air,3
 Node,1367,BREAK_ROOM_54_Z247_SUPPLYINLET,Air,3
 Node,1368,BREAK_ROOM_54_Z247_COOLC-HEATCNODE,Air,6
 Node,1369,BREAK_ROOM_54_Z247_HEATC-FANNODE,Air,5
 Node,1370,BREAK_ROOM_54_Z247_SUPPLYEQUIPMENTOUTLETNODE,Air,3
 Node,1371,MECHANICAL_54_Z248_SUPPLYINLET,Air,3
 Node,1372,MECHANICAL_54_Z248_COOLC-HEATCNODE,Air,6
 Node,1373,MECHANICAL_54_Z248_HEATC-FANNODE,Air,5
 Node,1374,MECHANICAL_54_Z248_SUPPLYEQUIPMENTOUTLETNODE,Air,3
 Node,1375,OFFICE_PRIVATE_54_Z249_SUPPLYINLET,Air,3
 Node,1376,OFFICE_PRIVATE_54_Z249_COOLC-HEATCNODE,Air,6
 Node,1377,OFFICE_PRIVATE_54_Z249_HEATC-FANNODE,Air,5
 Node,1378,OFFICE_PRIVATE_54_Z249_SUPPLYEQUIPMENTOUTLETNODE,Air,3
 Node,1379,STORAGE_54_Z250_SUPPLYINLET,Air,3
 Node,1380,STORAGE_54_Z250_COOLC-HEATCNODE,Air,6
 Node,1381,STORAGE_54_Z250_HEATC-FANNODE,Air,5
 Node,1382,STORAGE_54_Z250_SUPPLYEQUIPMENTOUTLETNODE,Air,3
 Node,1383,LOBBY_55_Z251_SUPPLYINLET,Air,3
 Node,1384,LOBBY_55_Z251_COOLC-HEATCNODE,Air,6
 Node,1385,LOBBY_55_Z251_HEATC-FANNODE,Air,5
 Node,1386,LOBBY_55_Z251_SUPPLYEQUIPMENTOUTLETNODE,Air,3
 Node,1387,BREAK_ROOM_55_Z252_SUPPLYINLET,Air,3
 Node,1388,BREAK_ROOM_55_Z252_COOLC-HEATCNODE,Air,6
 Node,1389,BREAK_ROOM_55_Z252_HEATC-FANNODE,Air,5
 Node,1390,BREAK_ROOM_55_Z252_SUPPLYEQUIPMENTOUTLETNODE,Air,3
 Node,1391,MECHANICAL_55_Z253_SUPPLYINLET,Air,3
 Node,1392,MECHANICAL_55_Z253_COOLC-HEATCNODE,Air,6
 Node,1393,MECHANICAL_55_Z253_HEATC-FANNODE,Air,5
 Node,1394,MECHANICAL_55_Z253_SUPPLYEQUIPMENTOUTLETNODE,Air,3
 Node,1395,OFFICE_PRIVATE_55_Z254_SUPPLYINLET,Air,3
 Node,1396,OFFICE_PRIVATE_55_Z254_COOLC-HEATCNODE,Air,6
 Node,1397,OFFICE_PRIVATE_55_Z254_HEATC-FANNODE,Air,5
 Node,1398,OFFICE_PRIVATE_55_Z254_SUPPLYEQUIPMENTOUTLETNODE,Air,3
 Node,1399,STORAGE_55_Z255_SUPPLYINLET,Air,3
 Node,1400,STORAGE_55_Z255_COOLC-HEATCNODE,Air,6
 Node,1401,STORAGE_55_Z255_HEATC-FANNODE,Air,5
 Node,1402,STORAGE_55_Z255_SUPPLYEQUIPMENTOUTLETNODE,Air,3
 Node,1403,LOBBY_56_Z256_SUPPLYINLET,Air,3
 Node,1404,LOBBY_56_Z256_COOLC-HEATCNODE,Air,6
 Node,1405,LOBBY_56_Z256_HEATC-FANNODE,Air,5
 Node,1406,LOBBY_56_Z256_SUPPLYEQUIPMENTOUTLETNODE,Air,3
 Node,1407,CONFERENCE_56_Z257_SUPPLYINLET,Air,3
 Node,1408,CONFERENCE_56_Z257_COOLC-HEATCNODE,Air,6
 Node,1409,CONFERENCE_56_Z257_HEATC-FANNODE,Air,5
 Node,1410,CONFERENCE_56_Z257_SUPPLYEQUIPMENTOUTLETNODE,Air,3
 Node,1411,BREAK_ROOM_56_Z258_SUPPLYINLET,Air,3
 Node,1412,BREAK_ROOM_56_Z258_COOLC-HEATCNODE,Air,6
 Node,1413,BREAK_ROOM_56_Z258_HEATC-FANNODE,Air,5
 Node,1414,BREAK_ROOM_56_Z258_SUPPLYEQUIPMENTOUTLETNODE,Air,3
 Node,1415,MECHANICAL_56_Z259_SUPPLYINLET,Air,3
 Node,1416,MECHANICAL_56_Z259_COOLC-HEATCNODE,Air,6
 Node,1417,MECHANICAL_56_Z259_HEATC-FANNODE,Air,5
 Node,1418,MECHANICAL_56_Z259_SUPPLYEQUIPMENTOUTLETNODE,Air,3
 Node,1419,OFFICE_OPEN_56_Z260_SUPPLYINLET,Air,3
 Node,1420,OFFICE_OPEN_56_Z260_COOLC-HEATCNODE,Air,6
 Node,1421,OFFICE_OPEN_56_Z260_HEATC-FANNODE,Air,5
 Node,1422,OFFICE_OPEN_56_Z260_SUPPLYEQUIPMENTOUTLETNODE,Air,3
 Node,1423,OFFICE_PRIVATE_56_Z261_SUPPLYINLET,Air,3
 Node,1424,OFFICE_PRIVATE_56_Z261_COOLC-HEATCNODE,Air,6
 Node,1425,OFFICE_PRIVATE_56_Z261_HEATC-FANNODE,Air,5
 Node,1426,OFFICE_PRIVATE_56_Z261_SUPPLYEQUIPMENTOUTLETNODE,Air,3
 Node,1427,STORAGE_56_Z262_SUPPLYINLET,Air,3
 Node,1428,STORAGE_56_Z262_COOLC-HEATCNODE,Air,6
 Node,1429,STORAGE_56_Z262_HEATC-FANNODE,Air,5
 Node,1430,STORAGE_56_Z262_SUPPLYEQUIPMENTOUTLETNODE,Air,3
 Node,1431,CONFERENCE_57_Z263_SUPPLYINLET,Air,3
 Node,1432,CONFERENCE_57_Z263_COOLC-HEATCNODE,Air,6
 Node,1433,CONFERENCE_57_Z263_HEATC-FANNODE,Air,5
 Node,1434,CONFERENCE_57_Z263_SUPPLYEQUIPMENTOUTLETNODE,Air,3
 Node,1435,BREAK_ROOM_57_Z264_SUPPLYINLET,Air,3
 Node,1436,BREAK_ROOM_57_Z264_COOLC-HEATCNODE,Air,6
 Node,1437,BREAK_ROOM_57_Z264_HEATC-FANNODE,Air,5
 Node,1438,BREAK_ROOM_57_Z264_SUPPLYEQUIPMENTOUTLETNODE,Air,3
 Node,1439,MECHANICAL_57_Z265_SUPPLYINLET,Air,3
 Node,1440,MECHANICAL_57_Z265_COOLC-HEATCNODE,Air,6
 Node,1441,MECHANICAL_57_Z265_HEATC-FANNODE,Air,5
 Node,1442,MECHANICAL_57_Z265_SUPPLYEQUIPMENTOUTLETNODE,Air,3
 Node,1443,OFFICE_OPEN_57_Z266_SUPPLYINLET,Air,3
 Node,1444,OFFICE_OPEN_57_Z266_COOLC-HEATCNODE,Air,6
 Node,1445,OFFICE_OPEN_57_Z266_HEATC-FANNODE,Air,5
 Node,1446,OFFICE_OPEN_57_Z266_SUPPLYEQUIPMENTOUTLETNODE,Air,3
 Node,1447,OFFICE_PRIVATE_57_Z267_SUPPLYINLET,Air,3
 Node,1448,OFFICE_PRIVATE_57_Z267_COOLC-HEATCNODE,Air,6
 Node,1449,OFFICE_PRIVATE_57_Z267_HEATC-FANNODE,Air,5
 Node,1450,OFFICE_PRIVATE_57_Z267_SUPPLYEQUIPMENTOUTLETNODE,Air,3
 Node,1451,STORAGE_57_Z268_SUPPLYINLET,Air,3
 Node,1452,STORAGE_57_Z268_COOLC-HEATCNODE,Air,6
 Node,1453,STORAGE_57_Z268_HEATC-FANNODE,Air,5
 Node,1454,STORAGE_57_Z268_SUPPLYEQUIPMENTOUTLETNODE,Air,3
 Node,1455,CONFERENCE_58_Z269_SUPPLYINLET,Air,3
 Node,1456,CONFERENCE_58_Z269_COOLC-HEATCNODE,Air,6
 Node,1457,CONFERENCE_58_Z269_HEATC-FANNODE,Air,5
 Node,1458,CONFERENCE_58_Z269_SUPPLYEQUIPMENTOUTLETNODE,Air,3
 Node,1459,BREAK_ROOM_58_Z270_SUPPLYINLET,Air,3
 Node,1460,BREAK_ROOM_58_Z270_COOLC-HEATCNODE,Air,6
 Node,1461,BREAK_ROOM_58_Z270_HEATC-FANNODE,Air,5
 Node,1462,BREAK_ROOM_58_Z270_SUPPLYEQUIPMENTOUTLETNODE,Air,3
 Node,1463,MECHANICAL_58_Z271_SUPPLYINLET,Air,3
 Node,1464,MECHANICAL_58_Z271_COOLC-HEATCNODE,Air,6
 Node,1465,MECHANICAL_58_Z271_HEATC-FANNODE,Air,5
 Node,1466,MECHANICAL_58_Z271_SUPPLYEQUIPMENTOUTLETNODE,Air,3
 Node,1467,OFFICE_PRIVATE_58_Z272_SUPPLYINLET,Air,3
 Node,1468,OFFICE_PRIVATE_58_Z272_COOLC-HEATCNODE,Air,6
 Node,1469,OFFICE_PRIVATE_58_Z272_HEATC-FANNODE,Air,5
 Node,1470,OFFICE_PRIVATE_58_Z272_SUPPLYEQUIPMENTOUTLETNODE,Air,3
 Node,1471,STORAGE_58_Z273_SUPPLYINLET,Air,3
 Node,1472,STORAGE_58_Z273_COOLC-HEATCNODE,Air,6
 Node,1473,STORAGE_58_Z273_HEATC-FANNODE,Air,5
 Node,1474,STORAGE_58_Z273_SUPPLYEQUIPMENTOUTLETNODE,Air,3
 Node,1475,LOBBY_59_Z274_SUPPLYINLET,Air,3
 Node,1476,LOBBY_59_Z274_COOLC-HEATCNODE,Air,6
 Node,1477,LOBBY_59_Z274_HEATC-FANNODE,Air,5
 Node,1478,LOBBY_59_Z274_SUPPLYEQUIPMENTOUTLETNODE,Air,3
 Node,1479,CONFERENCE_59_Z275_SUPPLYINLET,Air,3
 Node,1480,CONFERENCE_59_Z275_COOLC-HEATCNODE,Air,6
 Node,1481,CONFERENCE_59_Z275_HEATC-FANNODE,Air,5
 Node,1482,CONFERENCE_59_Z275_SUPPLYEQUIPMENTOUTLETNODE,Air,3
 Node,1483,MECHANICAL_59_Z276_SUPPLYINLET,Air,3
 Node,1484,MECHANICAL_59_Z276_COOLC-HEATCNODE,Air,6
 Node,1485,MECHANICAL_59_Z276_HEATC-FANNODE,Air,5
 Node,1486,MECHANICAL_59_Z276_SUPPLYEQUIPMENTOUTLETNODE,Air,3
 Node,1487,OFFICE_OPEN_59_Z277_SUPPLYINLET,Air,3
 Node,1488,OFFICE_OPEN_59_Z277_COOLC-HEATCNODE,Air,6
 Node,1489,OFFICE_OPEN_59_Z277_HEATC-FANNODE,Air,5
 Node,1490,OFFICE_OPEN_59_Z277_SUPPLYEQUIPMENTOUTLETNODE,Air,3
 Node,1491,OFFICE_PRIVATE_59_Z278_SUPPLYINLET,Air,3
 Node,1492,OFFICE_PRIVATE_59_Z278_COOLC-HEATCNODE,Air,6
 Node,1493,OFFICE_PRIVATE_59_Z278_HEATC-FANNODE,Air,5
 Node,1494,OFFICE_PRIVATE_59_Z278_SUPPLYEQUIPMENTOUTLETNODE,Air,3
 Node,1495,STORAGE_59_Z279_SUPPLYINLET,Air,3
 Node,1496,STORAGE_59_Z279_COOLC-HEATCNODE,Air,6
 Node,1497,STORAGE_59_Z279_HEATC-FANNODE,Air,5
 Node,1498,STORAGE_59_Z279_SUPPLYEQUIPMENTOUTLETNODE,Air,3
 Node,1499,CONFERENCE_60_Z280_SUPPLYINLET,Air,3
 Node,1500,CONFERENCE_60_Z280_COOLC-HEATCNODE,Air,6
 Node,1501,CONFERENCE_60_Z280_HEATC-FANNODE,Air,5
 Node,1502,CONFERENCE_60_Z280_SUPPLYEQUIPMENTOUTLETNODE,Air,3
 Node,1503,BREAK_ROOM_60_Z281_SUPPLYINLET,Air,3
 Node,1504,BREAK_ROOM_60_Z281_COOLC-HEATCNODE,Air,6
 Node,1505,BREAK_ROOM_60_Z281_HEATC-FANNODE,Air,5
 Node,1506,BREAK_ROOM_60_Z281_SUPPLYEQUIPMENTOUTLETNODE,Air,3
 Node,1507,MECHANICAL_60_Z282_SUPPLYINLET,Air,3
 Node,1508,MECHANICAL_60_Z282_COOLC-HEATCNODE,Air,6
 Node,1509,MECHANICAL_60_Z282_HEATC-FANNODE,Air,5
 Node,1510,MECHANICAL_60_Z282_SUPPLYEQUIPMENTOUTLETNODE,Air,3
 Node,1511,OFFICE_PRIVATE_60_Z283_SUPPLYINLET,Air,3
 Node,1512,OFFICE_PRIVATE_60_Z283_COOLC-HEATCNODE,Air,6
 Node,1513,OFFICE_PRIVATE_60_Z283_HEATC-FANNODE,Air,5
 Node,1514,OFFICE_PRIVATE_60_Z283_SUPPLYEQUIPMENTOUTLETNODE,Air,3
 Node,1515,LOBBY_61_Z284_SUPPLYINLET,Air,3
 Node,1516,LOBBY_61_Z284_COOLC-HEATCNODE,Air,6
 Node,1517,LOBBY_61_Z284_HEATC-FANNODE,Air,5
 Node,1518,LOBBY_61_Z284_SUPPLYEQUIPMENTOUTLETNODE,Air,3
 Node,1519,CONFERENCE_61_Z285_SUPPLYINLET,Air,3
 Node,1520,CONFERENCE_61_Z285_COOLC-HEATCNODE,Air,6
 Node,1521,CONFERENCE_61_Z285_HEATC-FANNODE,Air,5
 Node,1522,CONFERENCE_61_Z285_SUPPLYEQUIPMENTOUTLETNODE,Air,3
 Node,1523,BREAK_ROOM_61_Z286_SUPPLYINLET,Air,3
 Node,1524,BREAK_ROOM_61_Z286_COOLC-HEATCNODE,Air,6
 Node,1525,BREAK_ROOM_61_Z286_HEATC-FANNODE,Air,5
 Node,1526,BREAK_ROOM_61_Z286_SUPPLYEQUIPMENTOUTLETNODE,Air,3
 Node,1527,MECHANICAL_61_Z287_SUPPLYINLET,Air,3
 Node,1528,MECHANICAL_61_Z287_COOLC-HEATCNODE,Air,6
 Node,1529,MECHANICAL_61_Z287_HEATC-FANNODE,Air,5
 Node,1530,MECHANICAL_61_Z287_SUPPLYEQUIPMENTOUTLETNODE,Air,3
 Node,1531,STORAGE_61_Z288_SUPPLYINLET,Air,3
 Node,1532,STORAGE_61_Z288_COOLC-HEATCNODE,Air,6
 Node,1533,STORAGE_61_Z288_HEATC-FANNODE,Air,5
 Node,1534,STORAGE_61_Z288_SUPPLYEQUIPMENTOUTLETNODE,Air,3
 Node,1535,LOBBY_62_Z289_SUPPLYINLET,Air,3
 Node,1536,LOBBY_62_Z289_COOLC-HEATCNODE,Air,6
 Node,1537,LOBBY_62_Z289_HEATC-FANNODE,Air,5
 Node,1538,LOBBY_62_Z289_SUPPLYEQUIPMENTOUTLETNODE,Air,3
 Node,1539,CONFERENCE_62_Z290_SUPPLYINLET,Air,3
 Node,1540,CONFERENCE_62_Z290_COOLC-HEATCNODE,Air,6
 Node,1541,CONFERENCE_62_Z290_HEATC-FANNODE,Air,5
 Node,1542,CONFERENCE_62_Z290_SUPPLYEQUIPMENTOUTLETNODE,Air,3
 Node,1543,BREAK_ROOM_62_Z291_SUPPLYINLET,Air,3
 Node,1544,BREAK_ROOM_62_Z291_COOLC-HEATCNODE,Air,6
 Node,1545,BREAK_ROOM_62_Z291_HEATC-FANNODE,Air,5
 Node,1546,BREAK_ROOM_62_Z291_SUPPLYEQUIPMENTOUTLETNODE,Air,3
 Node,1547,MECHANICAL_62_Z292_SUPPLYINLET,Air,3
 Node,1548,MECHANICAL_62_Z292_COOLC-HEATCNODE,Air,6
 Node,1549,MECHANICAL_62_Z292_HEATC-FANNODE,Air,5
 Node,1550,MECHANICAL_62_Z292_SUPPLYEQUIPMENTOUTLETNODE,Air,3
 Node,1551,OFFICE_PRIVATE_62_Z293_SUPPLYINLET,Air,3
 Node,1552,OFFICE_PRIVATE_62_Z293_COOLC-HEATCNODE,Air,6
 Node,1553,OFFICE_PRIVATE_62_Z293_HEATC-FANNODE,Air,5
 Node,1554,OFFICE_PRIVATE_62_Z293_SUPPLYEQUIPMENTOUTLETNODE,Air,3
 Node,1555,STORAGE_62_Z294_SUPPLYINLET,Air,3
 Node,1556,STORAGE_62_Z294_COOLC-HEATCNODE,Air,6
 Node,1557,STORAGE_62_Z294_HEATC-FANNODE,Air,5
 Node,1558,STORAGE_62_Z294_SUPPLYEQUIPMENTOUTLETNODE,Air,3
 Node,1559,LOBBY_63_Z295_SUPPLYINLET,Air,3
 Node,1560,LOBBY_63_Z295_COOLC-HEATCNODE,Air,6
 Node,1561,LOBBY_63_Z295_HEATC-FANNODE,Air,5
 Node,1562,LOBBY_63_Z295_SUPPLYEQUIPMENTOUTLETNODE,Air,3
 Node,1563,CONFERENCE_63_Z296_SUPPLYINLET,Air,3
 Node,1564,CONFERENCE_63_Z296_COOLC-HEATCNODE,Air,6
 Node,1565,CONFERENCE_63_Z296_HEATC-FANNODE,Air,5
 Node,1566,CONFERENCE_63_Z296_SUPPLYEQUIPMENTOUTLETNODE,Air,3
 Node,1567,MECHANICAL_63_Z297_SUPPLYINLET,Air,3
 Node,1568,MECHANICAL_63_Z297_COOLC-HEATCNODE,Air,6
 Node,1569,MECHANICAL_63_Z297_HEATC-FANNODE,Air,5
 Node,1570,MECHANICAL_63_Z297_SUPPLYEQUIPMENTOUTLETNODE,Air,3
 Node,1571,OFFICE_PRIVATE_63_Z298_SUPPLYINLET,Air,3
 Node,1572,OFFICE_PRIVATE_63_Z298_COOLC-HEATCNODE,Air,6
 Node,1573,OFFICE_PRIVATE_63_Z298_HEATC-FANNODE,Air,5
 Node,1574,OFFICE_PRIVATE_63_Z298_SUPPLYEQUIPMENTOUTLETNODE,Air,3
 Node,1575,STORAGE_63_Z299_SUPPLYINLET,Air,3
 Node,1576,STORAGE_63_Z299_COOLC-HEATCNODE,Air,6
 Node,1577,STORAGE_63_Z299_HEATC-FANNODE,Air,5
 Node,1578,STORAGE_63_Z299_SUPPLYEQUIPMENTOUTLETNODE,Air,3
 Node,1579,LOBBY_64_Z300_SUPPLYINLET,Air,3
 Node,1580,LOBBY_64_Z300_COOLC-HEATCNODE,Air,6
 Node,1581,LOBBY_64_Z300_HEATC-FANNODE,Air,5
 Node,1582,LOBBY_64_Z300_SUPPLYEQUIPMENTOUTLETNODE,Air,3
 Node,1583,CONFERENCE_64_Z301_SUPPLYINLET,Air,3
 Node,1584,CONFERENCE_64_Z301_COOLC-HEATCNODE,Air,6
 Node,1585,CONFERENCE_64_Z301_HEATC-FANNODE,Air,5
 Node,1586,CONFERENCE_64_Z301_SUPPLYEQUIPMENTOUTLETNODE,Air,3
 Node,1587,MECHANICAL_64_Z302_SUPPLYINLET,Air,3
 Node,1588,MECHANICAL_64_Z302_COOLC-HEATCNODE,Air,6
 Node,1589,MECHANICAL_64_Z302_HEATC-FANNODE,Air,5
 Node,1590,MECHANICAL_64_Z302_SUPPLYEQUIPMENTOUTLETNODE,Air,3
 Node,1591,OFFICE_PRIVATE_64_Z303_SUPPLYINLET,Air,3
 Node,1592,OFFICE_PRIVATE_64_Z303_COOLC-HEATCNODE,Air,6
[...]
 Non-Parent Node Connection,STORAGE_62_Z294_SUPPLYINLET,COIL:COOLING:DX:SINGLESPEED,STORAGE_62_Z294_COOLINGCOILDX,Inlet,1
 Non-Parent Node Connection,STORAGE_62_Z294_COOLC-HEATCNODE,COIL:COOLING:DX:SINGLESPEED,STORAGE_62_Z294_COOLINGCOILDX,Outlet,1
 Non-Parent Node Connection,LOBBY_63_Z295_SUPPLYINLET,COIL:COOLING:DX:SINGLESPEED,LOBBY_63_Z295_COOLINGCOILDX,Inlet,1
 Non-Parent Node Connection,LOBBY_63_Z295_COOLC-HEATCNODE,COIL:COOLING:DX:SINGLESPEED,LOBBY_63_Z295_COOLINGCOILDX,Outlet,1
 Non-Parent Node Connection,CONFERENCE_63_Z296_SUPPLYINLET,COIL:COOLING:DX:SINGLESPEED,CONFERENCE_63_Z296_COOLINGCOILDX,Inlet,1
 Non-Parent Node Connection,CONFERENCE_63_Z296_COOLC-HEATCNODE,COIL:COOLING:DX:SINGLESPEED,CONFERENCE_63_Z296_COOLINGCOILDX,Outlet,1
 Non-Parent Node Connection,MECHANICAL_63_Z297_SUPPLYINLET,COIL:COOLING:DX:SINGLESPEED,MECHANICAL_63_Z297_COOLINGCOILDX,Inlet,1
 Non-Parent Node Connection,MECHANICAL_63_Z297_COOLC-HEATCNODE,COIL:COOLING:DX:SINGLESPEED,MECHANICAL_63_Z297_COOLINGCOILDX,Outlet,1
 Non-Parent Node Connection,OFFICE_PRIVATE_63_Z298_SUPPLYINLET,COIL:COOLING:DX:SINGLESPEED,OFFICE_PRIVATE_63_Z298_COOLINGCOILDX,Inlet,1
 Non-Parent Node Connection,OFFICE_PRIVATE_63_Z298_COOLC-HEATCNODE,COIL:COOLING:DX:SINGLESPEED,OFFICE_PRIVATE_63_Z298_COOLINGCOILDX,Outlet,1
 Non-Parent Node Connection,STORAGE_63_Z299_SUPPLYINLET,COIL:COOLING:DX:SINGLESPEED,STORAGE_63_Z299_COOLINGCOILDX,Inlet,1
 Non-Parent Node Connection,STORAGE_63_Z299_COOLC-HEATCNODE,COIL:COOLING:DX:SINGLESPEED,STORAGE_63_Z299_COOLINGCOILDX,Outlet,1
 Non-Parent Node Connection,LOBBY_64_Z300_SUPPLYINLET,COIL:COOLING:DX:SINGLESPEED,LOBBY_64_Z300_COOLINGCOILDX,Inlet,1
 Non-Parent Node Connection,LOBBY_64_Z300_COOLC-HEATCNODE,COIL:COOLING:DX:SINGLESPEED,LOBBY_64_Z300_COOLINGCOILDX,Outlet,1
 Non-Parent Node Connection,CONFERENCE_64_Z301_SUPPLYINLET,COIL:COOLING:DX:SINGLESPEED,CONFERENCE_64_Z301_COOLINGCOILDX,Inlet,1
 Non-Parent Node Connection,CONFERENCE_64_Z301_COOLC-HEATCNODE,COIL:COOLING:DX:SINGLESPEED,CONFERENCE_64_Z301_COOLINGCOILDX,Outlet,1
 Non-Parent Node Connection,MECHANICAL_64_Z302_SUPPLYINLET,COIL:COOLING:DX:SINGLESPEED,MECHANICAL_64_Z302_COOLINGCOILDX,Inlet,1
 Non-Parent Node Connection,MECHANICAL_64_Z302_COOLC-HEATCNODE,COIL:COOLING:DX:SINGLESPEED,MECHANICAL_64_Z302_COOLINGCOILDX,Outlet,1
 Non-Parent Node Connection,OFFICE_PRIVATE_64_Z303_SUPPLYINLET,COIL:COOLING:DX:SINGLESPEED,OFFICE_PRIVATE_64_Z303_COOLINGCOILDX,Inlet,1
 Non-Parent Node Connection,OFFICE_PRIVATE_64_Z303_COOLC-HEATCNODE,COIL:COOLING:DX:SINGLESPEED,OFFICE_PRIVATE_64_Z303_COOLINGCOILDX,Outlet,1
 Non-Parent Node Connection,STORAGE_64_Z304_SUPPLYINLET,COIL:COOLING:DX:SINGLESPEED,STORAGE_64_Z304_COOLINGCOILDX,Inlet,1
 Non-Parent Node Connection,STORAGE_64_Z304_COOLC-HEATCNODE,COIL:COOLING:DX:SINGLESPEED,STORAGE_64_Z304_COOLINGCOILDX,Outlet,1
 Non-Parent Node Connection,LOBBY_65_Z305_SUPPLYINLET,COIL:COOLING:DX:SINGLESPEED,LOBBY_65_Z305_COOLINGCOILDX,Inlet,1
 Non-Parent Node Connection,LOBBY_65_Z305_COOLC-HEATCNODE,COIL:COOLING:DX:SINGLESPEED,LOBBY_65_Z305_COOLINGCOILDX,Outlet,1
 Non-Parent Node Connection,BREAK_ROOM_65_Z306_SUPPLYINLET,COIL:COOLING:DX:SINGLESPEED,BREAK_ROOM_65_Z306_COOLINGCOILDX,Inlet,1
 Non-Parent Node Connection,BREAK_ROOM_65_Z306_COOLC-HEATCNODE,COIL:COOLING:DX:SINGLESPEED,BREAK_ROOM_65_Z306_COOLINGCOILDX,Outlet,1
 Non-Parent Node Connection,MECHANICAL_65_Z307_SUPPLYINLET,COIL:COOLING:DX:SINGLESPEED,MECHANICAL_65_Z307_COOLINGCOILDX,Inlet,1
 Non-Parent Node Connection,MECHANICAL_65_Z307_COOLC-HEATCNODE,COIL:COOLING:DX:SINGLESPEED,MECHANICAL_65_Z307_COOLINGCOILDX,Outlet,1
 Non-Parent Node Connection,OFFICE_OPEN_65_Z308_SUPPLYINLET,COIL:COOLING:DX:SINGLESPEED,OFFICE_OPEN_65_Z308_COOLINGCOILDX,Inlet,1
 Non-Parent Node Connection,OFFICE_OPEN_65_Z308_COOLC-HEATCNODE,COIL:COOLING:DX:SINGLESPEED,OFFICE_OPEN_65_Z308_COOLINGCOILDX,Outlet,1
 Non-Parent Node Connection,OFFICE_PRIVATE_65_Z309_SUPPLYINLET,COIL:COOLING:DX:SINGLESPEED,OFFICE_PRIVATE_65_Z309_COOLINGCOILDX,Inlet,1
 Non-Parent Node Connection,OFFICE_PRIVATE_65_Z309_COOLC-HEATCNODE,COIL:COOLING:DX:SINGLESPEED,OFFICE_PRIVATE_65_Z309_COOLINGCOILDX,Outlet,1
 Non-Parent Node Connection,STORAGE_65_Z310_SUPPLYINLET,COIL:COOLING:DX:SINGLESPEED,STORAGE_65_Z310_COOLINGCOILDX,Inlet,1
 Non-Parent Node Connection,STORAGE_65_Z310_COOLC-HEATCNODE,COIL:COOLING:DX:SINGLESPEED,STORAGE_65_Z310_COOLINGCOILDX,Outlet,1
 Non-Parent Node Connection,LOBBY_66_Z311_SUPPLYINLET,COIL:COOLING:DX:SINGLESPEED,LOBBY_66_Z311_COOLINGCOILDX,Inlet,1
 Non-Parent Node Connection,LOBBY_66_Z311_COOLC-HEATCNODE,COIL:COOLING:DX:SINGLESPEED,LOBBY_66_Z311_COOLINGCOILDX,Outlet,1
 Non-Parent Node Connection,BREAK_ROOM_66_Z312_SUPPLYINLET,COIL:COOLING:DX:SINGLESPEED,BREAK_ROOM_66_Z312_COOLINGCOILDX,Inlet,1
 Non-Parent Node Connection,BREAK_ROOM_66_Z312_COOLC-HEATCNODE,COIL:COOLING:DX:SINGLESPEED,BREAK_ROOM_66_Z312_COOLINGCOILDX,Outlet,1
 Non-Parent Node Connection,MECHANICAL_66_Z313_SUPPLYINLET,COIL:COOLING:DX:SINGLESPEED,MECHANICAL_66_Z313_COOLINGCOILDX,Inlet,1
 Non-Parent Node Connection,MECHANICAL_66_Z313_COOLC-HEATCNODE,COIL:COOLING:DX:SINGLESPEED,MECHANICAL_66_Z313_COOLINGCOILDX,Outlet,1
 Non-Parent Node Connection,OFFICE_OPEN_66_Z314_SUPPLYINLET,COIL:COOLING:DX:SINGLESPEED,OFFICE_OPEN_66_Z314_COOLINGCOILDX,Inlet,1
 Non-Parent Node Connection,OFFICE_OPEN_66_Z314_COOLC-HEATCNODE,COIL:COOLING:DX:SINGLESPEED,OFFICE_OPEN_66_Z314_COOLINGCOILDX,Outlet,1
 Non-Parent Node Connection,OFFICE_PRIVATE_66_Z315_SUPPLYINLET,COIL:COOLING:DX:SINGLESPEED,OFFICE_PRIVATE_66_Z315_COOLINGCOILDX,Inlet,1
 Non-Parent Node Connection,OFFICE_PRIVATE_66_Z315_COOLC-HEATCNODE,COIL:COOLING:DX:SINGLESPEED,OFFICE_PRIVATE_66_Z315_COOLINGCOILDX,Outlet,1
 Non-Parent Node Connection,STORAGE_66_Z316_SUPPLYINLET,COIL:COOLING:DX:SINGLESPEED,STORAGE_66_Z316_COOLINGCOILDX,Inlet,1
 Non-Parent Node Connection,STORAGE_66_Z316_COOLC-HEATCNODE,COIL:COOLING:DX:SINGLESPEED,STORAGE_66_Z316_COOLINGCOILDX,Outlet,1
 Non-Parent Node Connection,MECHANICAL_67_Z317_SUPPLYINLET,COIL:COOLING:DX:SINGLESPEED,MECHANICAL_67_Z317_COOLINGCOILDX,Inlet,1
 Non-Parent Node Connection,MECHANICAL_67_Z317_COOLC-HEATCNODE,COIL:COOLING:DX:SINGLESPEED,MECHANICAL_67_Z317_COOLINGCOILDX,Outlet,1
 Non-Parent Node Connection,OFFICE_PRIVATE_67_Z318_SUPPLYINLET,COIL:COOLING:DX:SINGLESPEED,OFFICE_PRIVATE_67_Z318_COOLINGCOILDX,Inlet,1
 Non-Parent Node Connection,OFFICE_PRIVATE_67_Z318_COOLC-HEATCNODE,COIL:COOLING:DX:SINGLESPEED,OFFICE_PRIVATE_67_Z318_COOLINGCOILDX,Outlet,1
 Non-Parent Node Connection,STORAGE_67_Z319_SUPPLYINLET,COIL:COOLING:DX:SINGLESPEED,STORAGE_67_Z319_COOLINGCOILDX,Inlet,1
 Non-Parent Node Connection,STORAGE_67_Z319_COOLC-HEATCNODE,COIL:COOLING:DX:SINGLESPEED,STORAGE_67_Z319_COOLINGCOILDX,Outlet,1
 Non-Parent Node Connection,CONFERENCE_68_Z320_SUPPLYINLET,COIL:COOLING:DX:SINGLESPEED,CONFERENCE_68_Z320_COOLINGCOILDX,Inlet,1
 Non-Parent Node Connection,CONFERENCE_68_Z320_COOLC-HEATCNODE,COIL:COOLING:DX:SINGLESPEED,CONFERENCE_68_Z320_COOLINGCOILDX,Outlet,1
 Non-Parent Node Connection,BREAK_ROOM_68_Z321_SUPPLYINLET,COIL:COOLING:DX:SINGLESPEED,BREAK_ROOM_68_Z321_COOLINGCOILDX,Inlet,1
 Non-Parent Node Connection,BREAK_ROOM_68_Z321_COOLC-HEATCNODE,COIL:COOLING:DX:SINGLESPEED,BREAK_ROOM_68_Z321_COOLINGCOILDX,Outlet,1
 Non-Parent Node Connection,MECHANICAL_68_Z322_SUPPLYINLET,COIL:COOLING:DX:SINGLESPEED,MECHANICAL_68_Z322_COOLINGCOILDX,Inlet,1
 Non-Parent Node Connection,MECHANICAL_68_Z322_COOLC-HEATCNODE,COIL:COOLING:DX:SINGLESPEED,MECHANICAL_68_Z322_COOLINGCOILDX,Outlet,1
 Non-Parent Node Connection,OFFICE_OPEN_68_Z323_SUPPLYINLET,COIL:COOLING:DX:SINGLESPEED,OFFICE_OPEN_68_Z323_COOLINGCOILDX,Inlet,1
 Non-Parent Node Connection,OFFICE_OPEN_68_Z323_COOLC-HEATCNODE,COIL:COOLING:DX:SINGLESPEED,OFFICE_OPEN_68_Z323_COOLINGCOILDX,Outlet,1
 Non-Parent Node Connection,STORAGE_68_Z324_SUPPLYINLET,COIL:COOLING:DX:SINGLESPEED,STORAGE_68_Z324_COOLINGCOILDX,Inlet,1
 Non-Parent Node Connection,STORAGE_68_Z324_COOLC-HEATCNODE,COIL:COOLING:DX:SINGLESPEED,STORAGE_68_Z324_COOLINGCOILDX,Outlet,1
 Non-Parent Node Connection,LOBBY_69_Z325_SUPPLYINLET,COIL:COOLING:DX:SINGLESPEED,LOBBY_69_Z325_COOLINGCOILDX,Inlet,1
 Non-Parent Node Connection,LOBBY_69_Z325_COOLC-HEATCNODE,COIL:COOLING:DX:SINGLESPEED,LOBBY_69_Z325_COOLINGCOILDX,Outlet,1
 Non-Parent Node Connection,CONFERENCE_69_Z326_SUPPLYINLET,COIL:COOLING:DX:SINGLESPEED,CONFERENCE_69_Z326_COOLINGCOILDX,Inlet,1
 Non-Parent Node Connection,CONFERENCE_69_Z326_COOLC-HEATCNODE,COIL:COOLING:DX:SINGLESPEED,CONFERENCE_69_Z326_COOLINGCOILDX,Outlet,1
 Non-Parent Node Connection,OFFICE_OPEN_69_Z327_SUPPLYINLET,COIL:COOLING:DX:SINGLESPEED,OFFICE_OPEN_69_Z327_COOLINGCOILDX,Inlet,1
 Non-Parent Node Connection,OFFICE_OPEN_69_Z327_COOLC-HEATCNODE,COIL:COOLING:DX:SINGLESPEED,OFFICE_OPEN_69_Z327_COOLINGCOILDX,Outlet,1
 Non-Parent Node Connection,OFFICE_PRIVATE_69_Z328_SUPPLYINLET,COIL:COOLING:DX:SINGLESPEED,OFFICE_PRIVATE_69_Z328_COOLINGCOILDX,Inlet,1
 Non-Parent Node Connection,OFFICE_PRIVATE_69_Z328_COOLC-HEATCNODE,COIL:COOLING:DX:SINGLESPEED,OFFICE_PRIVATE_69_Z328_COOLINGCOILDX,Outlet,1
 Non-Parent Node Connection,STORAGE_69_Z329_SUPPLYINLET,COIL:COOLING:DX:SINGLESPEED,STORAGE_69_Z329_COOLINGCOILDX,Inlet,1
 Non-Parent Node Connection,STORAGE_69_Z329_COOLC-HEATCNODE,COIL:COOLING:DX:SINGLESPEED,STORAGE_69_Z329_COOLINGCOILDX,Outlet,1
 Non-Parent Node Connection,CONFERENCE_70_Z330_SUPPLYINLET,COIL:COOLING:DX:SINGLESPEED,CONFERENCE_70_Z330_COOLINGCOILDX,Inlet,1
 Non-Parent Node Connection,CONFERENCE_70_Z330_COOLC-HEATCNODE,COIL:COOLING:DX:SINGLESPEED,CONFERENCE_70_Z330_COOLINGCOILDX,Outlet,1
 Non-Parent Node Connection,BREAK_ROOM_70_Z331_SUPPLYINLET,COIL:COOLING:DX:SINGLESPEED,BREAK_ROOM_70_Z331_COOLINGCOILDX,Inlet,1
 Non-Parent Node Connection,BREAK_ROOM_70_Z331_COOLC-HEATCNODE,COIL:COOLING:DX:SINGLESPEED,BREAK_ROOM_70_Z331_COOLINGCOILDX,Outlet,1
 Non-Parent Node Connection,MECHANICAL_70_Z332_SUPPLYINLET,COIL:COOLING:DX:SINGLESPEED,MECHANICAL_70_Z332_COOLINGCOILDX,Inlet,1
 Non-Parent Node Connection,MECHANICAL_70_Z332_COOLC-HEATCNODE,COIL:COOLING:DX:SINGLESPEED,MECHANICAL_70_Z332_COOLINGCOILDX,Outlet,1
 Non-Parent Node Connection,OFFICE_OPEN_70_Z333_SUPPLYINLET,COIL:COOLING:DX:SINGLESPEED,OFFICE_OPEN_70_Z333_COOLINGCOILDX,Inlet,1
 Non-Parent Node Connection,OFFICE_OPEN_70_Z333_COOLC-HEATCNODE,COIL:COOLING:DX:SINGLESPEED,OFFICE_OPEN_70_Z333_COOLINGCOILDX,Outlet,1
 Non-Parent Node Connection,STORAGE_70_Z334_SUPPLYINLET,COIL:COOLING:DX:SINGLESPEED,STORAGE_70_Z334_COOLINGCOILDX,Inlet,1
 Non-Parent Node Connection,STORAGE_70_Z334_COOLC-HEATCNODE,COIL:COOLING:DX:SINGLESPEED,STORAGE_70_Z334_COOLINGCOILDX,Outlet,1
 Non-Parent Node Connection,LOBBY_71_Z335_SUPPLYINLET,COIL:COOLING:DX:SINGLESPEED,LOBBY_71_Z335_COOLINGCOILDX,Inlet,1
 Non-Parent Node Connection,LOBBY_71_Z335_COOLC-HEATCNODE,COIL:COOLING:DX:SINGLESPEED,LOBBY_71_Z335_COOLINGCOILDX,Outlet,1
 Non-Parent Node Connection,CONFERENCE_71_Z336_SUPPLYINLET,COIL:COOLING:DX:SINGLESPEED,CONFERENCE_71_Z336_COOLINGCOILDX,Inlet,1
 Non-Parent Node Connection,CONFERENCE_71_Z336_COOLC-HEATCNODE,COIL:COOLING:DX:SINGLESPEED,CONFERENCE_71_Z336_COOLINGCOILDX,Outlet,1
 Non-Parent Node Connection,BREAK_ROOM_71_Z337_SUPPLYINLET,COIL:COOLING:DX:SINGLESPEED,BREAK_ROOM_71_Z337_COOLINGCOILDX,Inlet,1
 Non-Parent Node Connection,BREAK_ROOM_71_Z337_COOLC-HEATCNODE,COIL:COOLING:DX:SINGLESPEED,BREAK_ROOM_71_Z337_COOLINGCOILDX,Outlet,1
 Non-Parent Node Connection,MECHANICAL_71_Z338_SUPPLYINLET,COIL:COOLING:DX:SINGLESPEED,MECHANICAL_71_Z338_COOLINGCOILDX,Inlet,1
 Non-Parent Node Connection,MECHANICAL_71_Z338_COOLC-HEATCNODE,COIL:COOLING:DX:SINGLESPEED,MECHANICAL_71_Z338_COOLINGCOILDX,Outlet,1
 Non-Parent Node Connection,OFFICE_OPEN_71_Z339_SUPPLYINLET,COIL:COOLING:DX:SINGLESPEED,OFFICE_OPEN_71_Z339_COOLINGCOILDX,Inlet,1
 Non-Parent Node Connection,OFFICE_OPEN_71_Z339_COOLC-HEATCNODE,COIL:COOLING:DX:SINGLESPEED,OFFICE_OPEN_71_Z339_COOLINGCOILDX,Outlet,1
 Non-Parent Node Connection,CONFERENCE_72_Z340_SUPPLYINLET,COIL:COOLING:DX:SINGLESPEED,CONFERENCE_72_Z340_COOLINGCOILDX,Inlet,1
 Non-Parent Node Connection,CONFERENCE_72_Z340_COOLC-HEATCNODE,COIL:COOLING:DX:SINGLESPEED,CONFERENCE_72_Z340_COOLINGCOILDX,Outlet,1
 Non-Parent Node Connection,MECHANICAL_72_Z341_SUPPLYINLET,COIL:COOLING:DX:SINGLESPEED,MECHANICAL_72_Z341_COOLINGCOILDX,Inlet,1
 Non-Parent Node Connection,MECHANICAL_72_Z341_COOLC-HEATCNODE,COIL:COOLING:DX:SINGLESPEED,MECHANICAL_72_Z341_COOLINGCOILDX,Outlet,1
 Non-Parent Node Connection,OFFICE_OPEN_72_Z342_SUPPLYINLET,COIL:COOLING:DX:SINGLESPEED,OFFICE_OPEN_72_Z342_COOLINGCOILDX,Inlet,1
 Non-Parent Node Connection,OFFICE_OPEN_72_Z342_COOLC-HEATCNODE,COIL:COOLING:DX:SINGLESPEED,OFFICE_OPEN_72_Z342_COOLINGCOILDX,Outlet,1
 Non-Parent Node Connection,CONFERENCE_73_Z343_SUPPLYINLET,COIL:COOLING:DX:SINGLESPEED,CONFERENCE_73_Z343_COOLINGCOILDX,Inlet,1
 Non-Parent Node Connection,CONFERENCE_73_Z343_COOLC-HEATCNODE,COIL:COOLING:DX:SINGLESPEED,CONFERENCE_73_Z343_COOLINGCOILDX,Outlet,1
 Non-Parent Node Connection,BREAK_ROOM_73_Z344_SUPPLYINLET,COIL:COOLING:DX:SINGLESPEED,BREAK_ROOM_73_Z344_COOLINGCOILDX,Inlet,1
 Non-Parent Node Connection,BREAK_ROOM_73_Z344_COOLC-HEATCNODE,COIL:COOLING:DX:SINGLESPEED,BREAK_ROOM_73_Z344_COOLINGCOILDX,Outlet,1
 Non-Parent Node Connection,OFFICE_PRIVATE_73_Z345_SUPPLYINLET,COIL:COOLING:DX:SINGLESPEED,OFFICE_PRIVATE_73_Z345_COOLINGCOILDX,Inlet,1
 Non-Parent Node Connection,OFFICE_PRIVATE_73_Z345_COOLC-HEATCNODE,COIL:COOLING:DX:SINGLESPEED,OFFICE_PRIVATE_73_Z345_COOLINGCOILDX,Outlet,1
 Non-Parent Node Connection,STORAGE_73_Z346_SUPPLYINLET,COIL:COOLING:DX:SINGLESPEED,STORAGE_73_Z346_COOLINGCOILDX,Inlet,1
 Non-Parent Node Connection,STORAGE_73_Z346_COOLC-HEATCNODE,COIL:COOLING:DX:SINGLESPEED,STORAGE_73_Z346_COOLINGCOILDX,Outlet,1
 Non-Parent Node Connection,CONFERENCE_74_Z347_SUPPLYINLET,COIL:COOLING:DX:SINGLESPEED,CONFERENCE_74_Z347_COOLINGCOILDX,Inlet,1
 Non-Parent Node Connection,CONFERENCE_74_Z347_COOLC-HEATCNODE,COIL:COOLING:DX:SINGLESPEED,CONFERENCE_74_Z347_COOLINGCOILDX,Outlet,1
 Non-Parent Node Connection,MECHANICAL_74_Z348_SUPPLYINLET,COIL:COOLING:DX:SINGLESPEED,MECHANICAL_74_Z348_COOLINGCOILDX,Inlet,1
 Non-Parent Node Connection,MECHANICAL_74_Z348_COOLC-HEATCNODE,COIL:COOLING:DX:SINGLESPEED,MECHANICAL_74_Z348_COOLINGCOILDX,Outlet,1
 Non-Parent Node Connection,OFFICE_PRIVATE_74_Z349_SUPPLYINLET,COIL:COOLING:DX:SINGLESPEED,OFFICE_PRIVATE_74_Z349_COOLINGCOILDX,Inlet,1
 Non-Parent Node Connection,OFFICE_PRIVATE_74_Z349_COOLC-HEATCNODE,COIL:COOLING:DX:SINGLESPEED,OFFICE_PRIVATE_74_Z349_COOLINGCOILDX,Outlet,1
 Non-Parent Node Connection,STORAGE_74_Z350_SUPPLYINLET,COIL:COOLING:DX:SINGLESPEED,STORAGE_74_Z350_COOLINGCOILDX,Inlet,1
 Non-Parent Node Connection,STORAGE_74_Z350_COOLC-HEATCNODE,COIL:COOLING:DX:SINGLESPEED,STORAGE_74_Z350_COOLINGCOILDX,Outlet,1
 Non-Parent Node Connection,LOBBY_75_Z351_SUPPLYINLET,COIL:COOLING:DX:SINGLESPEED,LOBBY_75_Z351_COOLINGCOILDX,Inlet,1
 Non-Parent Node Connection,LOBBY_75_Z351_COOLC-HEATCNODE,COIL:COOLING:DX:SINGLESPEED,LOBBY_75_Z351_COOLINGCOILDX,Outlet,1
 Non-Parent Node Connection,BREAK_ROOM_75_Z352_SUPPLYINLET,COIL:COOLING:DX:SINGLESPEED,BREAK_ROOM_75_Z352_COOLINGCOILDX,Inlet,1
 Non-Parent Node Connection,BREAK_ROOM_75_Z352_COOLC-HEATCNODE,COIL:COOLING:DX:SINGLESPEED,BREAK_ROOM_75_Z352_COOLINGCOILDX,Outlet,1
 Non-Parent Node Connection,MECHANICAL_75_Z353_SUPPLYINLET,COIL:COOLING:DX:SINGLESPEED,MECHANICAL_75_Z353_COOLINGCOILDX,Inlet,1
 Non-Parent Node Connection,MECHANICAL_75_Z353_COOLC-HEATCNODE,COIL:COOLING:DX:SINGLESPEED,MECHANICAL_75_Z353_COOLINGCOILDX,Outlet,1
 Non-Parent Node Connection,OFFICE_OPEN_75_Z354_SUPPLYINLET,COIL:COOLING:DX:SINGLESPEED,OFFICE_OPEN_75_Z354_COOLINGCOILDX,Inlet,1
 Non-Parent Node Connection,OFFICE_OPEN_75_Z354_COOLC-HEATCNODE,COIL:COOLING:DX:SINGLESPEED,OFFICE_OPEN_75_Z354_COOLINGCOILDX,Outlet,1
 Non-Parent Node Connection,OFFICE_PRIVATE_75_Z355_SUPPLYINLET,COIL:COOLING:DX:SINGLESPEED,OFFICE_PRIVATE_75_Z355_COOLINGCOILDX,Inlet,1
 Non-Parent Node Connection,OFFICE_PRIVATE_75_Z355_COOLC-HEATCNODE,COIL:COOLING:DX:SINGLESPEED,OFFICE_PRIVATE_75_Z355_COOLINGCOILDX,Outlet,1
 Non-Parent Node Connection,LOBBY_76_Z356_SUPPLYINLET,COIL:COOLING:DX:SINGLESPEED,LOBBY_76_Z356_COOLINGCOILDX,Inlet,1
 Non-Parent Node Connection,LOBBY_76_Z356_COOLC-HEATCNODE,COIL:COOLING:DX:SINGLESPEED,LOBBY_76_Z356_COOLINGCOILDX,Outlet,1
 Non-Parent Node Connection,CONFERENCE_76_Z357_SUPPLYINLET,COIL:COOLING:DX:SINGLESPEED,CONFERENCE_76_Z357_COOLINGCOILDX,Inlet,1
 Non-Parent Node Connection,CONFERENCE_76_Z357_COOLC-HEATCNODE,COIL:COOLING:DX:SINGLESPEED,CONFERENCE_76_Z357_COOLINGCOILDX,Outlet,1
 Non-Parent Node Connection,BREAK_ROOM_76_Z358_SUPPLYINLET,COIL:COOLING:DX:SINGLESPEED,BREAK_ROOM_76_Z358_COOLINGCOILDX,Inlet,1
 Non-Parent Node Connection,BREAK_ROOM_76_Z358_COOLC-HEATCNODE,COIL:COOLING:DX:SINGLESPEED,BREAK_ROOM_76_Z358_COOLINGCOILDX,Outlet,1
 Non-Parent Node Connection,MECHANICAL_76_Z359_SUPPLYINLET,COIL:COOLING:DX:SINGLESPEED,MECHANICAL_76_Z359_COOLINGCOILDX,Inlet,1
 Non-Parent Node Connection,MECHANICAL_76_Z359_COOLC-HEATCNODE,COIL:COOLING:DX:SINGLESPEED,MECHANICAL_76_Z359_COOLINGCOILDX,Outlet,1
 Non-Parent Node Connection,STORAGE_76_Z360_SUPPLYINLET,COIL:COOLING:DX:SINGLESPEED,STORAGE_76_Z360_COOLINGCOILDX,Inlet,1
 Non-Parent Node Connection,STORAGE_76_Z360_COOLC-HEATCNODE,COIL:COOLING:DX:SINGLESPEED,STORAGE_76_Z360_COOLINGCOILDX,Outlet,1
 Non-Parent Node Connection,LOBBY_77_Z361_SUPPLYINLET,COIL:COOLING:DX:SINGLESPEED,LOBBY_77_Z361_COOLINGCOILDX,Inlet,1
 Non-Parent Node Connection,LOBBY_77_Z361_COOLC-HEATCNODE,COIL:COOLING:DX:SINGLESPEED,LOBBY_77_Z361_COOLINGCOILDX,Outlet,1
 Non-Parent Node Connection,BREAK_ROOM_77_Z362_SUPPLYINLET,COIL:COOLING:DX:SINGLESPEED,BREAK_ROOM_77_Z362_COOLINGCOILDX,Inlet,1
 Non-Parent Node Connection,BREAK_ROOM_77_Z362_COOLC-HEATCNODE,COIL:COOLING:DX:SINGLESPEED,BREAK_ROOM_77_Z362_COOLINGCOILDX,Outlet,1
 Non-Parent Node Connection,MECHANICAL_77_Z363_SUPPLYINLET,COIL:COOLING:DX:SINGLESPEED,MECHANICAL_77_Z363_COOLINGCOILDX,Inlet,1
 Non-Parent Node Connection,MECHANICAL_77_Z363_COOLC-HEATCNODE,COIL:COOLING:DX:SINGLESPEED,MECHANICAL_77_Z363_COOLINGCOILDX,Outlet,1
 Non-Parent Node Connection,OFFICE_PRIVATE_77_Z364_SUPPLYINLET,COIL:COOLING:DX:SINGLESPEED,OFFICE_PRIVATE_77_Z364_COOLINGCOILDX,Inlet,1
 Non-Parent Node Connection,OFFICE_PRIVATE_77_Z364_COOLC-HEATCNODE,COIL:COOLING:DX:SINGLESPEED,OFFICE_PRIVATE_77_Z364_COOLINGCOILDX,Outlet,1
 Non-Parent Node Connection,STORAGE_77_Z365_SUPPLYINLET,COIL:COOLING:DX:SINGLESPEED,STORAGE_77_Z365_COOLINGCOILDX,Inlet,1
 Non-Parent Node Connection,STORAGE_77_Z365_COOLC-HEATCNODE,COIL:COOLING:DX:SINGLESPEED,STORAGE_77_Z365_COOLINGCOILDX,Outlet,1
 Non-Parent Node Connection,LOBBY_78_Z366_SUPPLYINLET,COIL:COOLING:DX:SINGLESPEED,LOBBY_78_Z366_COOLINGCOILDX,Inlet,1
 Non-Parent Node Connection,LOBBY_78_Z366_COOLC-HEATCNODE,COIL:COOLING:DX:SINGLESPEED,LOBBY_78_Z366_COOLINGCOILDX,Outlet,1
 Non-Parent Node Connection,CONFERENCE_78_Z367_SUPPLYINLET,COIL:COOLING:DX:SINGLESPEED,CONFERENCE_78_Z367_COOLINGCOILDX,Inlet,1
 Non-Parent Node Connection,CONFERENCE_78_Z367_COOLC-HEATCNODE,COIL:COOLING:DX:SINGLESPEED,CONFERENCE_78_Z367_COOLINGCOILDX,Outlet,1
 Non-Parent Node Connection,MECHANICAL_78_Z368_SUPPLYINLET,COIL:COOLING:DX:SINGLESPEED,MECHANICAL_78_Z368_COOLINGCOILDX,Inlet,1
 Non-Parent Node Connection,MECHANICAL_78_Z368_COOLC-HEATCNODE,COIL:COOLING:DX:SINGLESPEED,MECHANICAL_78_Z368_COOLINGCOILDX,Outlet,1
 Non-Parent Node Connection,STORAGE_78_Z369_SUPPLYINLET,COIL:COOLING:DX:SINGLESPEED,STORAGE_78_Z369_COOLINGCOILDX,Inlet,1
 Non-Parent Node Connection,STORAGE_78_Z369_COOLC-HEATCNODE,COIL:COOLING:DX:SINGLESPEED,STORAGE_78_Z369_COOLINGCOILDX,Outlet,1
 Non-Parent Node Connection,CONFERENCE_79_Z370_SUPPLYINLET,COIL:COOLING:DX:SINGLESPEED,CONFERENCE_79_Z370_COOLINGCOILDX,Inlet,1
 Non-Parent Node Connection,CONFERENCE_79_Z370_COOLC-HEATCNODE,COIL:COOLING:DX:SINGLESPEED,CONFERENCE_79_Z370_COOLINGCOILDX,Outlet,1
 Non-Parent 