Program Version,EnergyPlus, Version 24.2.0-94a887817b, YMD=2025.11.03 09:22,
   ** Warning ** Site:GroundTemperature:BuildingSurface: Some values fall outside the range of 15-25C.
   **   ~~~   ** These values may be inappropriate.  Please consult the Input Output Reference for more details.
   ** Warning ** Weather file location will be used rather than entered (IDF) Location object.
   **   ~~~   ** ..Location object=SITE
   **   ~~~   ** ..Weather File Location=Chicago Ohare Intl Ap IL USA TMY3 WMO#=725300
   **   ~~~   ** ..due to location differences, Latitude difference=[9.56E-002] degrees, Longitude difference=[0.28] degrees.
   **   ~~~   ** ..Time Zone difference=[2.0] hour(s), Elevation difference=[1910.00] percent, [191.00] meters.
   ** Warning ** ProcessScheduleInput: Schedule:Compact="BREAK_ROOM_LIGHTING" has missing day types in Through=12/31
   **   ~~~   ** Last "For" field=FOR: WEEKENDS
   **   ~~~   ** Missing day types="Holiday","SummerDesignDay","WinterDesignDay","CustomDay1","CustomDay2"
   **   ~~~   ** Missing day types will have 0.0 as Schedule Values
   ** Warning ** ProcessScheduleInput: Schedule:Compact="BREAK_ROOM_EQUIPMENT" has missing day types in Through=12/31
   **   ~~~   ** Last "For" field=FOR: WEEKENDS
   **   ~~~   ** Missing day types="Holiday","SummerDesignDay","WinterDesignDay","CustomDay1","CustomDay2"
   **   ~~~   ** Missing day types will have 0.0 as Schedule Values
   ** Warning ** ProcessScheduleInput: Schedule:Compact="CONFERENCE_OCCUPANCY" has missing day types in Through=12/31
   **   ~~~   ** Last "For" field=FOR: WEEKENDS
   **   ~~~   ** Missing day types="Holiday","SummerDesignDay","WinterDesignDay","CustomDay1","CustomDay2"
   **   ~~~   ** Missing day types will have 0.0 as Schedule Values
   ** Warning ** ProcessScheduleInput: Schedule:Compact="CONFERENCE_LIGHTING" has missing day types in Through=12/31
   **   ~~~   ** Last "For" field=FOR: WEEKENDS
   **   ~~~   ** Missing day types="Holiday","SummerDesignDay","WinterDesignDay","CustomDay1","CustomDay2"
   **   ~~~   ** Missing day types will have 0.0 as Schedule Values
   ** Warning ** ProcessScheduleInput: Schedule:Compact="CONFERENCE_EQUIPMENT" has missing day types in Through=12/31
   **   ~~~   ** Last "For" field=FOR: WEEKENDS
   **   ~~~   ** Missing day types="Holiday","SummerDesignDay","WinterDesignDay","CustomDay1","CustomDay2"
   **   ~~~   ** Missing day types will have 0.0 as Schedule Values
   ** Warning ** ProcessScheduleInput: Schedule:Compact="LOBBY_LIGHTING" has missing day types in Through=12/31
   **   ~~~   ** Last "For" field=FOR: WEEKENDS
   **   ~~~   ** Missing day types="Holiday","SummerDesignDay","WinterDesignDay","CustomDay1","CustomDay2"
   **   ~~~   ** Missing day types will have 0.0 as Schedule Values
   ** Warning ** ProcessScheduleInput: Schedule:Compact="LOBBY_EQUIPMENT" has missing day types in Through=12/31
   **   ~~~   ** Last "For" field=FOR: WEEKENDS
   **   ~~~   ** Missing day types="Holiday","SummerDesignDay","WinterDesignDay","CustomDay1","CustomDay2"
   **   ~~~   ** Missing day types will have 0.0 as Schedule Values
   ** Warning ** ProcessScheduleInput: Schedule:Compact="MECHANICAL_LIGHTING" has missing day types in Through=12/31
   **   ~~~   ** Last "For" field=FOR: WEEKENDS
   **   ~~~   ** Missing day types="Holiday","SummerDesignDay","WinterDesignDay","CustomDay1","CustomDay2"
   **   ~~~   ** Missing day types will have 0.0 as Schedule Values
   ** Warning ** ProcessScheduleInput: Schedule:Compact="MECHANICAL_EQUIPMENT" has missing day types in Through=12/31
   **   ~~~   ** Last "For" field=FOR: WEEKENDS
   **   ~~~   ** Missing day types="Holiday","SummerDesignDay","WinterDesignDay","CustomDay1","CustomDay2"
   **   ~~~   ** Missing day types will have 0.0 as Schedule Values
   ** Warning ** ProcessScheduleInput: Schedule:Compact="OFFICE_OPEN_OCCUPANCY" has missing day types in Through=12/31
   **   ~~~   ** Last "For" field=FOR: WEEKENDS
   **   ~~~   ** Missing day types="Holiday","SummerDesignDay","WinterDesignDay","CustomDay1","CustomDay2"
   **   ~~~   ** Missing day types will have 0.0 as Schedule Values
   ** Warning ** ProcessScheduleInput: Schedule:Compact="OFFICE_OPEN_LIGHTING" has missing day types in Through=12/31
   **   ~~~   ** Last "For" field=FOR: WEEKENDS
   **   ~~~   ** Missing day types="Holiday","SummerDesignDay","WinterDesignDay","CustomDay1","CustomDay2"
   **   ~~~   ** Missing day types will have 0.0 as Schedule Values
   ** Warning ** ProcessScheduleInput: Schedule:Compact="OFFICE_OPEN_EQUIPMENT" has missing day types in Through=12/31
   **   ~~~   ** Last "For" field=FOR: WEEKENDS
   **   ~~~   ** Missing day types="Holiday","SummerDesignDay","WinterDesignDay","CustomDay1","CustomDay2"
   **   ~~~   ** Missing day types will have 0.0 as Schedule Values
   ** Warning ** ProcessScheduleInput: Schedule:Compact="STORAGE_LIGHTING" has missing day types in Through=12/31
   **   ~~~   ** Last "For" field=FOR: WEEKENDS
   **   ~~~   ** Missing day types="Holiday","SummerDesignDay","WinterDesignDay","CustomDay1","CustomDay2"
   **   ~~~   ** Missing day types will have 0.0 as Schedule Values
   ** Warning ** ProcessScheduleInput: Schedule:Compact="STORAGE_EQUIPMENT" has missing day types in Through=12/31
   **   ~~~   ** Last "For" field=FOR: WEEKENDS
   **   ~~~   ** Missing day types="Holiday","SummerDesignDay","WinterDesignDay","CustomDay1","CustomDay2"
   **   ~~~   ** Missing day types will have 0.0 as Schedule Values
   ** Warning ** GetVertices: Floor is upside down! Tilt angle=[0.0], should be near 180, Surface="OFFICE_OPEN_0_0_0_FLOOR", in Zone="OFFICE_OPEN_0_0_0".
   **   ~~~   ** Automatic fix is attempted.
   ** Warning ** GetVertices: Roof/Ceiling is upside down! Tilt angle=[180.0], should be near 0, Surface="OFFICE_OPEN_0_0_0_CEILING", in Zone="OFFICE_OPEN_0_0_0".
   **   ~~~   ** Automatic fix is attempted.
   ** Warning ** GetVertices: Floor is upside down! Tilt angle=[0.0], should be near 180, Surface="OFFICE_PRIVATE_0_0_1_FLOOR", in Zone="OFFICE_PRIVATE_0_0_1".
   **   ~~~   ** Automatic fix is attempted.
   ** Warning ** GetVertices: Roof/Ceiling is upside down! Tilt angle=[180.0], should be near 0, Surface="OFFICE_PRIVATE_0_0_1_CEILING", in Zone="OFFICE_PRIVATE_0_0_1".
   **   ~~~   ** Automatic fix is attempted.
   ** Warning ** GetVertices: Floor is upside down! Tilt angle=[0.0], should be near 180, Surface="STORAGE_0_0_2_FLOOR", in Zone="STORAGE_0_0_2".
   **   ~~~   ** Automatic fix is attempted.
   ** Warning ** GetVertices: Roof/Ceiling is upside down! Tilt angle=[180.0], should be near 0, Surface="STORAGE_0_0_2_CEILING", in Zone="STORAGE_0_0_2".
   **   ~~~   ** Automatic fix is attempted.
   ** Warning ** GetVertices: Floor is upside down! Tilt angle=[0.0], should be near 180, Surface="OFFICE_OPEN_0_1_0_FLOOR", in Zone="OFFICE_OPEN_0_1_0".
   **   ~~~   ** Automatic fix is attempted.
   ** Warning ** GetVertices: Roof/Ceiling is upside down! Tilt angle=[180.0], should be near 0, Surface="OFFICE_OPEN_0_1_0_CEILING", in Zone="OFFICE_OPEN_0_1_0".
   **   ~~~   ** Automatic fix is attempted.
   ** Warning ** GetVertices: Floor is upside down! Tilt angle=[0.0], should be near 180, Surface="OFFICE_PRIVATE_0_1_1_FLOOR", in Zone="OFFICE_PRIVATE_0_1_1".
   **   ~~~   ** Automatic fix is attempted.
   ** Warning ** GetVertices: Roof/Ceiling is upside down! Tilt angle=[180.0], should be near 0, Surface="OFFICE_PRIVATE_0_1_1_CEILING", in Zone="OFFICE_PRIVATE_0_1_1".
   **   ~~~   ** Automatic fix is attempted.
   ** Warning ** GetVertices: Floor is upside down! Tilt angle=[0.0], should be near 180, Surface="STORAGE_0_1_2_FLOOR", in Zone="STORAGE_0_1_2".
   **   ~~~   ** Automatic fix is attempted.
   ** Warning ** GetVertices: Roof/Ceiling is upside down! Tilt angle=[180.0], should be near 0, Surface="STORAGE_0_1_2_CEILING", in Zone="STORAGE_0_1_2".
   **   ~~~   ** Automatic fix is attempted.
   ** Warning ** GetVertices: Floor is upside down! Tilt angle=[0.0], should be near 180, Surface="OFFICE_OPEN_0_2_0_FLOOR", in Zone="OFFICE_OPEN_0_2_0".
   **   ~~~   ** Automatic fix is attempted.
   ** Warning ** GetVertices: Roof/Ceiling is upside down! Tilt angle=[180.0], should be near 0, Surface="OFFICE_OPEN_0_2_0_CEILING", in Zone="OFFICE_OPEN_0_2_0".
   **   ~~~   ** Automatic fix is attempted.
   ** Warning ** GetVertices: Floor is upside down! Tilt angle=[0.0], should be near 180, Surface="OFFICE_PRIVATE_0_2_1_FLOOR", in Zone="OFFICE_PRIVATE_0_2_1".
   **   ~~~   ** Automatic fix is attempted.
   ** Warning ** GetVertices: Roof/Ceiling is upside down! Tilt angle=[180.0], should be near 0, Surface="OFFICE_PRIVATE_0_2_1_CEILING", in Zone="OFFICE_PRIVATE_0_2_1".
   **   ~~~   ** Automatic fix is attempted.
   ** Warning ** GetVertices: Floor is upside down! Tilt angle=[0.0], should be near 180, Surface="STORAGE_0_2_2_FLOOR", in Zone="STORAGE_0_2_2".
   **   ~~~   ** Automatic fix is attempted.
   ** Warning ** GetVertices: Roof/Ceiling is upside down! Tilt angle=[180.0], should be near 0, Surface="STORAGE_0_2_2_CEILING", in Zone="STORAGE_0_2_2".
   **   ~~~   ** Automatic fix is attempted.
   ** Warning ** GetVertices: Floor is upside down! Tilt angle=[0.0], should be near 180, Surface="OFFICE_OPEN_1_0_0_FLOOR", in Zone="OFFICE_OPEN_1_0_0".
   **   ~~~   ** Automatic fix is attempted.
   ** Warning ** GetVertices: Roof/Ceiling is upside down! Tilt angle=[180.0], should be near 0, Surface="OFFICE_OPEN_1_0_0_CEILING", in Zone="OFFICE_OPEN_1_0_0".
   **   ~~~   ** Automatic fix is attempted.
   ** Warning ** GetVertices: Floor is upside down! Tilt angle=[0.0], should be near 180, Surface="OFFICE_PRIVATE_1_0_1_FLOOR", in Zone="OFFICE_PRIVATE_1_0_1".
   **   ~~~   ** Automatic fix is attempted.
   ** Warning ** GetVertices: Roof/Ceiling is upside down! Tilt angle=[180.0], should be near 0, Surface="OFFICE_PRIVATE_1_0_1_CEILING", in Zone="OFFICE_PRIVATE_1_0_1".
   **   ~~~   ** Automatic fix is attempted.
   ** Warning ** GetVertices: Floor is upside down! Tilt angle=[0.0], should be near 180, Surface="STORAGE_1_0_2_FLOOR", in Zone="STORAGE_1_0_2".
   **   ~~~   ** Automatic fix is attempted.
   ** Warning ** GetVertices: Roof/Ceiling is upside down! Tilt angle=[180.0], should be near 0, Surface="STORAGE_1_0_2_CEILING", in Zone="STORAGE_1_0_2".
   **   ~~~   ** Automatic fix is attempted.
   ** Warning ** GetVertices: Floor is upside down! Tilt angle=[0.0], should be near 180, Surface="OFFICE_OPEN_1_1_0_FLOOR", in Zone="OFFICE_OPEN_1_1_0".
   **   ~~~   ** Automatic fix is attempted.
   ** Warning ** GetVertices: Roof/Ceiling is upside down! Tilt angle=[180.0], should be near 0, Surface="OFFICE_OPEN_1_1_0_CEILING", in Zone="OFFICE_OPEN_1_1_0".
   **   ~~~   ** Automatic fix is attempted.
   ** Warning ** GetVertices: Floor is upside down! Tilt angle=[0.0], should be near 180, Surface="OFFICE_PRIVATE_1_1_1_FLOOR", in Zone="OFFICE_PRIVATE_1_1_1".
   **   ~~~   ** Automatic fix is attempted.
   ** Warning ** GetVertices: Roof/Ceiling is upside down! Tilt angle=[180.0], should be near 0, Surface="OFFICE_PRIVATE_1_1_1_CEILING", in Zone="OFFICE_PRIVATE_1_1_1".
   **   ~~~   ** Automatic fix is attempted.
   ** Warning ** GetVertices: Floor is upside down! Tilt angle=[0.0], should be near 180, Surface="STORAGE_1_1_2_FLOOR", in Zone="STORAGE_1_1_2".
   **   ~~~   ** Automatic fix is attempted.
   ** Warning ** GetVertices: Roof/Ceiling is upside down! Tilt angle=[180.0], should be near 0, Surface="STORAGE_1_1_2_CEILING", in Zone="STORAGE_1_1_2".
   **   ~~~   ** Automatic fix is attempted.
   ** Warning ** GetVertices: Floor is upside down! Tilt angle=[0.0], should be near 180, Surface="OFFICE_OPEN_1_2_0_FLOOR", in Zone="OFFICE_OPEN_1_2_0".
   **   ~~~   ** Automatic fix is attempted.
   ** Warning ** GetVertices: Roof/Ceiling is upside down! Tilt angle=[180.0], should be near 0, Surface="OFFICE_OPEN_1_2_0_CEILING", in Zone="OFFICE_OPEN_1_2_0".
   **   ~~~   ** Automatic fix is attempted.
   ** Warning ** GetVertices: Floor is upside down! Tilt angle=[0.0], should be near 180, Surface="OFFICE_PRIVATE_1_2_1_FLOOR", in Zone="OFFICE_PRIVATE_1_2_1".
   **   ~~~   ** Automatic fix is attempted.
   ** Warning ** GetVertices: Roof/Ceiling is upside down! Tilt angle=[180.0], should be near 0, Surface="OFFICE_PRIVATE_1_2_1_CEILING", in Zone="OFFICE_PRIVATE_1_2_1".
   **   ~~~   ** Automatic fix is attempted.
   ** Warning ** GetVertices: Floor is upside down! Tilt angle=[0.0], should be near 180, Surface="STORAGE_1_2_2_FLOOR", in Zone="STORAGE_1_2_2".
   **   ~~~   ** Automatic fix is attempted.
   ** Warning ** GetVertices: Roof/Ceiling is upside down! Tilt angle=[180.0], should be near 0, Surface="STORAGE_1_2_2_CEILING", in Zone="STORAGE_1_2_2".
   **   ~~~   ** Automatic fix is attempted.
   ** Warning ** GetVertices: Floor is upside down! Tilt angle=[0.0], should be near 180, Surface="OFFICE_OPEN_2_0_0_FLOOR", in Zone="OFFICE_OPEN_2_0_0".
   **   ~~~   ** Automatic fix is attempted.
   ** Warning ** GetVertices: Roof/Ceiling is upside down! Tilt angle=[180.0], should be near 0, Surface="OFFICE_OPEN_2_0_0_CEILING", in Zone="OFFICE_OPEN_2_0_0".
   **   ~~~   ** Automatic fix is attempted.
   ** Warning ** GetVertices: Floor is upside down! Tilt angle=[0.0], should be near 180, Surface="OFFICE_PRIVATE_2_0_1_FLOOR", in Zone="OFFICE_PRIVATE_2_0_1".
   **   ~~~   ** Automatic fix is attempted.
   ** Warning ** GetVertices: Roof/Ceiling is upside down! Tilt angle=[180.0], should be near 0, Surface="OFFICE_PRIVATE_2_0_1_CEILING", in Zone="OFFICE_PRIVATE_2_0_1".
   **   ~~~   ** Automatic fix is attempted.
   ** Warning ** GetVertices: Floor is upside down! Tilt angle=[0.0], should be near 180, Surface="STORAGE_2_0_2_FLOOR", in Zone="STORAGE_2_0_2".
   **   ~~~   ** Automatic fix is attempted.
   ** Warning ** GetVertices: Roof/Ceiling is upside down! Tilt angle=[180.0], should be near 0, Surface="STORAGE_2_0_2_CEILING", in Zone="STORAGE_2_0_2".
   **   ~~~   ** Automatic fix is attempted.
   ** Warning ** GetVertices: Floor is upside down! Tilt angle=[0.0], should be near 180, Surface="OFFICE_OPEN_2_1_0_FLOOR", in Zone="OFFICE_OPEN_2_1_0".
   **   ~~~   ** Automatic fix is attempted.
   ** Warning ** GetVertices: Roof/Ceiling is upside down! Tilt angle=[180.0], should be near 0, Surface="OFFICE_OPEN_2_1_0_CEILING", in Zone="OFFICE_OPEN_2_1_0".
   **   ~~~   ** Automatic fix is attempted.
   ** Warning ** GetVertices: Floor is upside down! Tilt angle=[0.0], should be near 180, Surface="OFFICE_PRIVATE_2_1_1_FLOOR", in Zone="OFFICE_PRIVATE_2_1_1".
   **   ~~~   ** Automatic fix is attempted.
   ** Warning ** GetVertices: Roof/Ceiling is upside down! Tilt angle=[180.0], should be near 0, Surface="OFFICE_PRIVATE_2_1_1_CEILING", in Zone="OFFICE_PRIVATE_2_1_1".
   **   ~~~   ** Automatic fix is attempted.
   ** Warning ** GetVertices: Floor is upside down! Tilt angle=[0.0], should be near 180, Surface="STORAGE_2_1_2_FLOOR", in Zone="STORAGE_2_1_2".
   **   ~~~   ** Automatic fix is attempted.
   ** Warning ** GetVertices: Roof/Ceiling is upside down! Tilt angle=[180.0], should be near 0, Surface="STORAGE_2_1_2_CEILING", in Zone="STORAGE_2_1_2".
   **   ~~~   ** Automatic fix is attempted.
   ** Warning ** GetVertices: Floor is upside down! Tilt angle=[0.0], should be near 180, Surface="OFFICE_OPEN_2_2_0_FLOOR", in Zone="OFFICE_OPEN_2_2_0".
   **   ~~~   ** Automatic fix is attempted.
   ** Warning ** GetVertices: Roof/Ceiling is upside down! Tilt angle=[180.0], should be near 0, Surface="OFFICE_OPEN_2_2_0_CEILING", in Zone="OFFICE_OPEN_2_2_0".
   **   ~~~   ** Automatic fix is attempted.
   ** Warning ** GetVertices: Floor is upside down! Tilt angle=[0.0], should be near 180, Surface="OFFICE_PRIVATE_2_2_1_FLOOR", in Zone="OFFICE_PRIVATE_2_2_1".
   **   ~~~   ** Automatic fix is attempted.
   ** Warning ** GetVertices: Roof/Ceiling is upside down! Tilt angle=[180.0], should be near 0, Surface="OFFICE_PRIVATE_2_2_1_CEILING", in Zone="OFFICE_PRIVATE_2_2_1".
   **   ~~~   ** Automatic fix is attempted.
   ** Warning ** GetVertices: Floor is upside down! Tilt angle=[0.0], should be near 180, Surface="STORAGE_2_2_2_FLOOR", in Zone="STORAGE_2_2_2".
   **   ~~~   ** Automatic fix is attempted.
   ** Warning ** GetVertices: Roof/Ceiling is upside down! Tilt angle=[180.0], should be near 0, Surface="STORAGE_2_2_2_CEILING", in Zone="STORAGE_2_2_2".
   **   ~~~   ** Automatic fix is attempted.
   ** Warning ** GetVertices: Floor is upside down! Tilt angle=[0.0], should be near 180, Surface="OFFICE_OPEN_3_0_0_FLOOR", in Zone="OFFICE_OPEN_3_0_0".
   **   ~~~   ** Automatic fix is attempted.
   ** Warning ** GetVertices: Roof/Ceiling is upside down! Tilt angle=[180.0], should be near 0, Surface="OFFICE_OPEN_3_0_0_CEILING", in Zone="OFFICE_OPEN_3_0_0".
   **   ~~~   ** Automatic fix is attempted.
   ** Warning ** GetVertices: Floor is upside down! Tilt angle=[0.0], should be near 180, Surface="OFFICE_PRIVATE_3_0_1_FLOOR", in Zone="OFFICE_PRIVATE_3_0_1".
   **   ~~~   ** Automatic fix is attempted.
   ** Warning ** GetVertices: Roof/Ceiling is upside down! Tilt angle=[180.0], should be near 0, Surface="OFFICE_PRIVATE_3_0_1_CEILING", in Zone="OFFICE_PRIVATE_3_0_1".
   **   ~~~   ** Automatic fix is attempted.
   ** Warning ** GetVertices: Floor is upside down! Tilt angle=[0.0], should be near 180, Surface="STORAGE_3_0_2_FLOOR", in Zone="STORAGE_3_0_2".
   **   ~~~   ** Automatic fix is attempted.
   ** Warning ** GetVertices: Roof/Ceiling is upside down! Tilt angle=[180.0], should be near 0, Surface="STORAGE_3_0_2_CEILING", in Zone="STORAGE_3_0_2".
   **   ~~~   ** Automatic fix is attempted.
   ** Warning ** GetVertices: Floor is upside down! Tilt angle=[0.0], should be near 180, Surface="OFFICE_OPEN_3_1_0_FLOOR", in Zone="OFFICE_OPEN_3_1_0".
   **   ~~~   ** Automatic fix is attempted.
   ** Warning ** GetVertices: Roof/Ceiling is upside down! Tilt angle=[180.0], should be near 0, Surface="OFFICE_OPEN_3_1_0_CEILING", in Zone="OFFICE_OPEN_3_1_0".
   **   ~~~   ** Automatic fix is attempted.
   ** Warning ** GetVertices: Floor is upside down! Tilt angle=[0.0], should be near 180, Surface="OFFICE_PRIVATE_3_1_1_FLOOR", in Zone="OFFICE_PRIVATE_3_1_1".
   **   ~~~   ** Automatic fix is attempted.
   ** Warning ** GetVertices: Roof/Ceiling is upside down! Tilt angle=[180.0], should be near 0, Surface="OFFICE_PRIVATE_3_1_1_CEILING", in Zone="OFFICE_PRIVATE_3_1_1".
   **   ~~~   ** Automatic fix is attempted.
   ** Warning ** GetVertices: Floor is upside down! Tilt angle=[0.0], should be near 180, Surface="STORAGE_3_1_2_FLOOR", in Zone="STORAGE_3_1_2".
   **   ~~~   ** Automatic fix is attempted.
   ** Warning ** GetVertices: Roof/Ceiling is upside down! Tilt angle=[180.0], should be near 0, Surface="STORAGE_3_1_2_CEILING", in Zone="STORAGE_3_1_2".
   **   ~~~   ** Automatic fix is attempted.
   ** Warning ** GetVertices: Floor is upside down! Tilt angle=[0.0], should be near 180, Surface="OFFICE_OPEN_3_2_0_FLOOR", in Zone="OFFICE_OPEN_3_2_0".
   **   ~~~   ** Automatic fix is attempted.
   ** Warning ** GetVertices: Roof/Ceiling is upside down! Tilt angle=[180.0], should be near 0, Surface="OFFICE_OPEN_3_2_0_CEILING", in Zone="OFFICE_OPEN_3_2_0".
   **   ~~~   ** Automatic fix is attempted.
   ** Warning ** GetVertices: Floor is upside down! Tilt angle=[0.0], should be near 180, Surface="OFFICE_PRIVATE_3_2_1_FLOOR", in Zone="OFFICE_PRIVATE_3_2_1".
   **   ~~~   ** Automatic fix is attempted.
   ** Warning ** GetVertices: Roof/Ceiling is upside down! Tilt angle=[180.0], should be near 0, Surface="OFFICE_PRIVATE_3_2_1_CEILING", in Zone="OFFICE_PRIVATE_3_2_1".
   **   ~~~   ** Automatic fix is attempted.
   ** Warning ** GetVertices: Floor is upside down! Tilt angle=[0.0], should be near 180, Surface="STORAGE_3_2_2_FLOOR", in Zone="STORAGE_3_2_2".
   **   ~~~   ** Automatic fix is attempted.
   ** Warning ** GetVertices: Roof/Ceiling is upside down! Tilt angle=[180.0], should be near 0, Surface="STORAGE_3_2_2_CEILING", in Zone="STORAGE_3_2_2".
   **   ~~~   ** Automatic fix is attempted.
   ** Warning ** GetVertices: Floor is upside down! Tilt angle=[0.0], should be near 180, Surface="OFFICE_OPEN_4_0_0_FLOOR", in Zone="OFFICE_OPEN_4_0_0".
   **   ~~~   ** Automatic fix is attempted.
   ** Warning ** GetVertices: Roof/Ceiling is upside down! Tilt angle=[180.0], should be near 0, Surface="OFFICE_OPEN_4_0_0_CEILING", in Zone="OFFICE_OPEN_4_0_0".
   **   ~~~   ** Automatic fix is attempted.
   ** Warning ** GetVertices: Floor is upside down! Tilt angle=[0.0], should be near 180, Surface="OFFICE_PRIVATE_4_0_1_FLOOR", in Zone="OFFICE_PRIVATE_4_0_1".
   **   ~~~   ** Automatic fix is attempted.
   ** Warning ** GetVertices: Roof/Ceiling is upside down! Tilt angle=[180.0], should be near 0, Surface="OFFICE_PRIVATE_4_0_1_CEILING", in Zone="OFFICE_PRIVATE_4_0_1".
   **   ~~~   ** Automatic fix is attempted.
   ** Warning ** GetVertices: Floor is upside down! Tilt angle=[0.0], should be near 180, Surface="STORAGE_4_0_2_FLOOR", in Zone="STORAGE_4_0_2".
   **   ~~~   ** Automatic fix is attempted.
   ** Warning ** GetVertices: Roof/Ceiling is upside down! Tilt angle=[180.0], should be near 0, Surface="STORAGE_4_0_2_CEILING", in Zone="STORAGE_4_0_2".
   **   ~~~   ** Automatic fix is attempted.
   ** Warning ** GetVertices: Floor is upside down! Tilt angle=[0.0], should be near 180, Surface="OFFICE_OPEN_4_1_0_FLOOR", in Zone="OFFICE_OPEN_4_1_0".
   **   ~~~   ** Automatic fix is attempted.
   ** Warning ** GetVertices: Roof/Ceiling is upside down! Tilt angle=[180.0], should be near 0, Surface="OFFICE_OPEN_4_1_0_CEILING", in Zone="OFFICE_OPEN_4_1_0".
   **   ~~~   ** Automatic fix is attempted.
   ** Warning ** GetVertices: Floor is upside down! Tilt angle=[0.0], should be near 180, Surface="OFFICE_PRIVATE_4_1_1_FLOOR", in Zone="OFFICE_PRIVATE_4_1_1".
   **   ~~~   ** Automatic fix is attempted.
   ** Warning ** GetVertices: Roof/Ceiling is upside down! Tilt angle=[180.0], should be near 0, Surface="OFFICE_PRIVATE_4_1_1_CEILING", in Zone="OFFICE_PRIVATE_4_1_1".
   **   ~~~   ** Automatic fix is attempted.
   ** Warning ** GetVertices: Floor is upside down! Tilt angle=[0.0], should be near 180, Surface="STORAGE_4_1_2_FLOOR", in Zone="STORAGE_4_1_2".
   **   ~~~   ** Automatic fix is attempted.
   ** Warning ** GetVertices: Roof/Ceiling is upside down! Tilt angle=[180.0], should be near 0, Surface="STORAGE_4_1_2_CEILING", in Zone="STORAGE_4_1_2".
   **   ~~~   ** Automatic fix is attempted.
   ** Warning ** GetVertices: Floor is upside down! Tilt angle=[0.0], should be near 180, Surface="OFFICE_OPEN_4_2_0_FLOOR", in Zone="OFFICE_OPEN_4_2_0".
   **   ~~~   ** Automatic fix is attempted.
   ** Warning ** GetVertices: Roof/Ceiling is upside down! Tilt angle=[180.0], should be near 0, Surface="OFFICE_OPEN_4_2_0_CEILING", in Zone="OFFICE_OPEN_4_2_0".
   **   ~~~   ** Automatic fix is attempted.
   ** Warning ** GetVertices: Floor is upside down! Tilt angle=[0.0], should be near 180, Surface="OFFICE_PRIVATE_4_2_1_FLOOR", in Zone="OFFICE_PRIVATE_4_2_1".
   **   ~~~   ** Automatic fix is attempted.
   ** Warning ** GetVertices: Roof/Ceiling is upside down! Tilt angle=[180.0], should be near 0, Surface="OFFICE_PRIVATE_4_2_1_CEILING", in Zone="OFFICE_PRIVATE_4_2_1".
   **   ~~~   ** Automatic fix is attempted.
   ** Warning ** GetVertices: Floor is upside down! Tilt angle=[0.0], should be near 180, Surface="STORAGE_4_2_2_FLOOR", in Zone="STORAGE_4_2_2".
   **   ~~~   ** Automatic fix is attempted.
   ** Warning ** GetVertices: Roof/Ceiling is upside down! Tilt angle=[180.0], should be near 0, Surface="STORAGE_4_2_2_CEILING", in Zone="STORAGE_4_2_2".
   **   ~~~   ** Automatic fix is attempted.
   ** Warning ** GetVertices: Floor is upside down! Tilt angle=[0.0], should be near 180, Surface="OFFICE_OPEN_5_0_0_FLOOR", in Zone="OFFICE_OPEN_5_0_0".
   **   ~~~   ** Automatic fix is attempted.
   ** Warning ** GetVertices: Roof/Ceiling is upside down! Tilt angle=[180.0], should be near 0, Surface="OFFICE_OPEN_5_0_0_CEILING", in Zone="OFFICE_OPEN_5_0_0".
   **   ~~~   ** Automatic fix is attempted.
   ** Warning ** GetVertices: Floor is upside down! Tilt angle=[0.0], should be near 180, Surface="OFFICE_PRIVATE_5_0_1_FLOOR", in Zone="OFFICE_PRIVATE_5_0_1".
   **   ~~~   ** Automatic fix is attempted.
   ** Warning ** GetVertices: Roof/Ceiling is upside down! Tilt angle=[180.0], should be near 0, Surface="OFFICE_PRIVATE_5_0_1_CEILING", in Zone="OFFICE_PRIVATE_5_0_1".
   **   ~~~   ** Automatic fix is attempted.
   ** Warning ** GetVertices: Floor is upside down! Tilt angle=[0.0], should be near 180, Surface="STORAGE_5_0_2_FLOOR", in Zone="STORAGE_5_0_2".
   **   ~~~   ** Automatic fix is attempted.
   ** Warning ** GetVertices: Roof/Ceiling is upside down! Tilt angle=[180.0], should be near 0, Surface="STORAGE_5_0_2_CEILING", in Zone="STORAGE_5_0_2".
   **   ~~~   ** Automatic fix is attempted.
   ** Warning ** GetVertices: Floor is upside down! Tilt angle=[0.0], should be near 180, Surface="OFFICE_OPEN_5_1_0_FLOOR", in Zone="OFFICE_OPEN_5_1_0".
   **   ~~~   ** Automatic fix is attempted.
   ** Warning ** GetVertices: Roof/Ceiling is upside down! Tilt angle=[180.0], should be near 0, Surface="OFFICE_OPEN_5_1_0_CEILING", in Zone="OFFICE_OPEN_5_1_0".
   **   ~~~   ** Automatic fix is attempted.
   ** Warning ** GetVertices: Floor is upside down! Tilt angle=[0.0], should be near 180, Surface="OFFICE_PRIVATE_5_1_1_FLOOR", in Zone="OFFICE_PRIVATE_5_1_1".
   **   ~~~   ** Automatic fix is attempted.
   ** Warning ** GetVertices: Roof/Ceiling is upside down! Tilt angle=[180.0], should be near 0, Surface="OFFICE_PRIVATE_5_1_1_CEILING", in Zone="OFFICE_PRIVATE_5_1_1".
   **   ~~~   ** Automatic fix is attempted.
   ** Warning ** GetVertices: Floor is upside down! Tilt angle=[0.0], should be near 180, Surface="STORAGE_5_1_2_FLOOR", in Zone="STORAGE_5_1_2".
   **   ~~~   ** Automatic fix is attempted.
   ** Warning ** GetVertices: Roof/Ceiling is upside down! Tilt angle=[180.0], should be near 0, Surface="STORAGE_5_1_2_CEILING", in Zone="STORAGE_5_1_2".
   **   ~~~   ** Automatic fix is attempted.
   ** Warning ** GetVertices: Floor is upside down! Tilt angle=[0.0], should be near 180, Surface="OFFICE_OPEN_5_2_0_FLOOR", in Zone="OFFICE_OPEN_5_2_0".
   **   ~~~   ** Automatic fix is attempted.
   ** Warning ** GetVertices: Roof/Ceiling is upside down! Tilt angle=[180.0], should be near 0, Surface="OFFICE_OPEN_5_2_0_CEILING", in Zone="OFFICE_OPEN_5_2_0".
   **   ~~~   ** Automatic fix is attempted.
   ** Warning ** GetVertices: Floor is upside down! Tilt angle=[0.0], should be near 180, Surface="OFFICE_PRIVATE_5_2_1_FLOOR", in Zone="OFFICE_PRIVATE_5_2_1".
   **   ~~~   ** Automatic fix is attempted.
   ** Warning ** GetVertices: Roof/Ceiling is upside down! Tilt angle=[180.0], should be near 0, Surface="OFFICE_PRIVATE_5_2_1_CEILING", in Zone="OFFICE_PRIVATE_5_2_1".
   **   ~~~   ** Automatic fix is attempted.
   ** Warning ** GetVertices: Floor is upside down! Tilt angle=[0.0], should be near 180, Surface="STORAGE_5_2_2_FLOOR", in Zone="STORAGE_5_2_2".
   **   ~~~   ** Automatic fix is attempted.
   ** Warning ** GetVertices: Roof/Ceiling is upside down! Tilt angle=[180.0], should be near 0, Surface="STORAGE_5_2_2_CEILING", in Zone="STORAGE_5_2_2".
   **   ~~~   ** Automatic fix is attempted.
   ** Warning ** GetVertices: Floor is upside down! Tilt angle=[0.0], should be near 180, Surface="OFFICE_OPEN_6_0_0_FLOOR", in Zone="OFFICE_OPEN_6_0_0".
   **   ~~~   ** Automatic fix is attempted.
   ** Warning ** GetVertices: Roof/Ceiling is upside down! Tilt angle=[180.0], should be near 0, Surface="OFFICE_OPEN_6_0_0_CEILING", in Zone="OFFICE_OPEN_6_0_0".
   **   ~~~   ** Automatic fix is attempted.
   ** Warning ** GetVertices: Floor is upside down! Tilt angle=[0.0], should be near 180, Surface="OFFICE_PRIVATE_6_0_1_FLOOR", in Zone="OFFICE_PRIVATE_6_0_1".
   **   ~~~   ** Automatic fix is attempted.
   ** Warning ** GetVertices: Roof/Ceiling is upside down! Tilt angle=[180.0], should be near 0, Surface="OFFICE_PRIVATE_6_0_1_CEILING", in Zone="OFFICE_PRIVATE_6_0_1".
   **   ~~~   ** Automatic fix is attempted.
   ** Warning ** GetVertices: Floor is upside down! Tilt angle=[0.0], should be near 180, Surface="STORAGE_6_0_2_FLOOR", in Zone="STORAGE_6_0_2".
   **   ~~~   ** Automatic fix is attempted.
   ** Warning ** GetVertices: Roof/Ceiling is upside down! Tilt angle=[180.0], should be near 0, Surface="STORAGE_6_0_2_CEILING", in Zone="STORAGE_6_0_2".
   **   ~~~   ** Automatic fix is attempted.
   ** Warning ** GetVertices: Floor is upside down! Tilt angle=[0.0], should be near 180, Surface="OFFICE_OPEN_6_1_0_FLOOR", in Zone="OFFICE_OPEN_6_1_0".
   **   ~~~   ** Automatic fix is attempted.
   ** Warning ** GetVertices: Roof/Ceiling is upside down! Tilt angle=[180.0], should be near 0, Surface="OFFICE_OPEN_6_1_0_CEILING", in Zone="OFFICE_OPEN_6_1_0".
   **   ~~~   ** Automatic fix is attempted.
   ** Warning ** GetVertices: Floor is upside down! Tilt angle=[0.0], should be near 180, Surface="OFFICE_PRIVATE_6_1_1_FLOOR", in Zone="OFFICE_PRIVATE_6_1_1".
   **   ~~~   ** Automatic fix is attempted.
   ** Warning ** GetVertices: Roof/Ceiling is upside down! Tilt angle=[180.0], should be near 0, Surface="OFFICE_PRIVATE_6_1_1_CEILING", in Zone="OFFICE_PRIVATE_6_1_1".
   **   ~~~   ** Automatic fix is attempted.
   ** Warning ** GetVertices: Floor is upside down! Tilt angle=[0.0], should be near 180, Surface="STORAGE_6_1_2_FLOOR", in Zone="STORAGE_6_1_2".
   **   ~~~   ** Automatic fix is attempted.
   ** Warning ** GetVertices: Roof/Ceiling is upside down! Tilt angle=[180.0], should be near 0, Surface="STORAGE_6_1_2_CEILING", in Zone="STORAGE_6_1_2".
   **   ~~~   ** Automatic fix is attempted.
   ** Warning ** GetVertices: Floor is upside down! Tilt angle=[0.0], should be near 180, Surface="OFFICE_OPEN_6_2_0_FLOOR", in Zone="OFFICE_OPEN_6_2_0".
   **   ~~~   ** Automatic fix is attempted.
   ** Warning ** GetVertices: Roof/Ceiling is upside down! Tilt angle=[180.0], should be near 0, Surface="OFFICE_OPEN_6_2_0_CEILING", in Zone="OFFICE_OPEN_6_2_0".
   **   ~~~   ** Automatic fix is attempted.
   ** Warning ** GetVertices: Floor is upside down! Tilt angle=[0.0], should be near 180, Surface="OFFICE_PRIVATE_6_2_1_FLOOR", in Zone="OFFICE_PRIVATE_6_2_1".
   **   ~~~   ** Automatic fix is attempted.
   ** Warning ** GetVertices: Roof/Ceiling is upside down! Tilt angle=[180.0], should be near 0, Surface="OFFICE_PRIVATE_6_2_1_CEILING", in Zone="OFFICE_PRIVATE_6_2_1".
   **   ~~~   ** Automatic fix is attempted.
   ** Warning ** GetVertices: Floor is upside down! Tilt angle=[0.0], should be near 180, Surface="STORAGE_6_2_2_FLOOR", in Zone="STORAGE_6_2_2".
   **   ~~~   ** Automatic fix is attempted.
   ** Warning ** GetVertices: Roof/Ceiling is upside down! Tilt angle=[180.0], should be near 0, Surface="STORAGE_6_2_2_CEILING", in Zone="STORAGE_6_2_2".
   **   ~~~   ** Automatic fix is attempted.
   ** Warning ** GetVertices: Floor is upside down! Tilt angle=[0.0], should be near 180, Surface="OFFICE_OPEN_7_0_0_FLOOR", in Zone="OFFICE_OPEN_7_0_0".
   **   ~~~   ** Automatic fix is attempted.
   ** Warning ** GetVertices: Roof/Ceiling is upside down! Tilt angle=[180.0], should be near 0, Surface="OFFICE_OPEN_7_0_0_CEILING", in Zone="OFFICE_OPEN_7_0_0".
   **   ~~~   ** Automatic fix is attempted.
   ** Warning ** GetVertices: Floor is upside down! Tilt angle=[0.0], should be near 180, Surface="OFFICE_PRIVATE_7_0_1_FLOOR", in Zone="OFFICE_PRIVATE_7_0_1".
   **   ~~~   ** Automatic fix is attempted.
   ** Warning ** GetVertices: Roof/Ceiling is upside down! Tilt angle=[180.0], should be near 0, Surface="OFFICE_PRIVATE_7_0_1_CEILING", in Zone="OFFICE_PRIVATE_7_0_1".
   **   ~~~   ** Automatic fix is attempted.
   ** Warning ** GetVertices: Floor is upside down! Tilt angle=[0.0], should be near 180, Surface="STORAGE_7_0_2_FLOOR", in Zone="STORAGE_7_0_2".
   **   ~~~   ** Automatic fix is attempted.
   ** Warning ** GetVertices: Roof/Ceiling is upside down! Tilt angle=[180.0], should be near 0, Surface="STORAGE_7_0_2_CEILING", in Zone="STORAGE_7_0_2".
   **   ~~~   ** Automatic fix is attempted.
   ** Warning ** GetVertices: Floor is upside down! Tilt angle=[0.0], should be near 180, Surface="OFFICE_OPEN_7_1_0_FLOOR", in Zone="OFFICE_OPEN_7_1_0".
   **   ~~~   ** Automatic fix is attempted.
   ** Warning ** GetVertices: Roof/Ceiling is upside down! Tilt angle=[180.0], should be near 0, Surface="OFFICE_OPEN_7_1_0_CEILING", in Zone="OFFICE_OPEN_7_1_0".
   **   ~~~   ** Automatic fix is attempted.
   ** Warning ** GetVertices: Floor is upside down! Tilt angle=[0.0], should be near 180, Surface="OFFICE_PRIVATE_7_1_1_FLOOR", in Zone="OFFICE_PRIVATE_7_1_1".
   **   ~~~   ** Automatic fix is attempted.
   ** Warning ** GetVertices: Roof/Ceiling is upside down! Tilt angle=[180.0], should be near 0, Surface="OFFICE_PRIVATE_7_1_1_CEILING", in Zone="OFFICE_PRIVATE_7_1_1".
   **   ~~~   ** Automatic fix is attempted.
   ** Warning ** GetVertices: Floor is upside down! Tilt angle=[0.0], should be near 180, Surface="STORAGE_7_1_2_FLOOR", in Zone="STORAGE_7_1_2".
   **   ~~~   ** Automatic fix is attempted.
   ** Warning ** GetVertices: Roof/Ceiling is upside down! Tilt angle=[180.0], should be near 0, Surface="STORAGE_7_1_2_CEILING", in Zone="STORAGE_7_1_2".
   **   ~~~   ** Automatic fix is attempted.
   ** Warning ** GetVertices: Floor is upside down! Tilt angle=[0.0], should be near 180, Surface="OFFICE_OPEN_7_2_0_FLOOR", in Zone="OFFICE_OPEN_7_2_0".
   **   ~~~   ** Automatic fix is attempted.
   ** Warning ** GetVertices: Roof/Ceiling is upside down! Tilt angle=[180.0], should be near 0, Surface="OFFICE_OPEN_7_2_0_CEILING", in Zone="OFFICE_OPEN_7_2_0".
   **   ~~~   ** Automatic fix is attempted.
   ** Warning ** GetVertices: Floor is upside down! Tilt angle=[0.0], should be near 180, Surface="OFFICE_PRIVATE_7_2_1_FLOOR", in Zone="OFFICE_PRIVATE_7_2_1".
   **   ~~~   ** Automatic fix is attempted.
   ** Warning ** GetVertices: Roof/Ceiling is upside down! Tilt angle=[180.0], should be near 0, Surface="OFFICE_PRIVATE_7_2_1_CEILING", in Zone="OFFICE_PRIVATE_7_2_1".
   **   ~~~   ** Automatic fix is attempted.
   ** Warning ** GetVertices: Floor is upside down! Tilt angle=[0.0], should be near 180, Surface="STORAGE_7_2_2_FLOOR", in Zone="STORAGE_7_2_2".
   **   ~~~   ** Automatic fix is attempted.
   ** Warning ** GetVertices: Roof/Ceiling is upside down! Tilt angle=[180.0], should be near 0, Surface="STORAGE_7_2_2_CEILING", in Zone="STORAGE_7_2_2".
   **   ~~~   ** Automatic fix is attempted.
   ** Warning ** GetVertices: Floor is upside down! Tilt angle=[0.0], should be near 180, Surface="OFFICE_OPEN_8_0_0_FLOOR", in Zone="OFFICE_OPEN_8_0_0".
   **   ~~~   ** Automatic fix is attempted.
   ** Warning ** GetVertices: Roof/Ceiling is upside down! Tilt angle=[180.0], should be near 0, Surface="OFFICE_OPEN_8_0_0_CEILING", in Zone="OFFICE_OPEN_8_0_0".
   **   ~~~   ** Automatic fix is attempted.
   ** Warning ** GetVertices: Floor is upside down! Tilt angle=[0.0], should be near 180, Surface="OFFICE_PRIVATE_8_0_1_FLOOR", in Zone="OFFICE_PRIVATE_8_0_1".
   **   ~~~   ** Automatic fix is attempted.
   ** Warning ** GetVertices: Roof/Ceiling is upside down! Tilt angle=[180.0], should be near 0, Surface="OFFICE_PRIVATE_8_0_1_CEILING", in Zone="OFFICE_PRIVATE_8_0_1".
   **   ~~~   ** Automatic fix is attempted.
   ** Warning ** GetVertices: Floor is upside down! Tilt angle=[0.0], should be near 180, Surface="STORAGE_8_0_2_FLOOR", in Zone="STORAGE_8_0_2".
   **   ~~~   ** Automatic fix is attempted.
   ** Warning ** GetVertices: Roof/Ceiling is upside down! Tilt angle=[180.0], should be near 0, Surface="STORAGE_8_0_2_CEILING", in Zone="STORAGE_8_0_2".
   **   ~~~   ** Automatic fix is attempted.
   ** Warning ** GetVertices: Floor is upside down! Tilt angle=[0.0], should be near 180, Surface="OFFICE_OPEN_8_1_0_FLOOR", in Zone="OFFICE_OPEN_8_1_0".
   **   ~~~   ** Automatic fix is attempted.
   ** Warning ** GetVertices: Roof/Ceiling is upside down! Tilt angle=[180.0], should be near 0, Surface="OFFICE_OPEN_8_1_0_CEILING", in Zone="OFFICE_OPEN_8_1_0".
   **   ~~~   ** Automatic fix is attempted.
   ** Warning ** GetVertices: Floor is upside down! Tilt angle=[0.0], should be near 180, Surface="OFFICE_PRIVATE_8_1_1_FLOOR", in Zone="OFFICE_PRIVATE_8_1_1".
   **   ~~~   ** Automatic fix is attempted.
   ** Warning ** GetVertices: Roof/Ceiling is upside down! Tilt angle=[180.0], should be near 0, Surface="OFFICE_PRIVATE_8_1_1_CEILING", in Zone="OFFICE_PRIVATE_8_1_1".
   **   ~~~   ** Automatic fix is attempted.
   ** Warning ** GetVertices: Floor is upside down! Tilt angle=[0.0], should be near 180, Surface="STORAGE_8_1_2_FLOOR", in Zone="STORAGE_8_1_2".
   **   ~~~   ** Automatic fix is attempted.
   ** Warning ** GetVertices: Roof/Ceiling is upside down! Tilt angle=[180.0], should be near 0, Surface="STORAGE_8_1_2_CEILING", in Zone="STORAGE_8_1_2".
   **   ~~~   ** Automatic fix is attempted.
   ** Warning ** GetVertices: Floor is upside down! Tilt angle=[0.0], should be near 180, Surface="OFFICE_OPEN_8_2_0_FLOOR", in Zone="OFFICE_OPEN_8_2_0".
   **   ~~~   ** Automatic fix is attempted.
   ** Warning ** GetVertices: Roof/Ceiling is upside down! Tilt angle=[180.0], should be near 0, Surface="OFFICE_OPEN_8_2_0_CEILING", in Zone="OFFICE_OPEN_8_2_0".
   **   ~~~   ** Automatic fix is attempted.
   ** Warning ** GetVertices: Floor is upside down! Tilt angle=[0.0], should be near 180, Surface="OFFICE_PRIVATE_8_2_1_FLOOR", in Zone="OFFICE_PRIVATE_8_2_1".
   **   ~~~   ** Automatic fix is attempted.
   ** Warning ** GetVertices: Roof/Ceiling is upside down! Tilt angle=[180.0], should be near 0, Surface="OFFICE_PRIVATE_8_2_1_CEILING", in Zone="OFFICE_PRIVATE_8_2_1".
   **   ~~~   ** Automatic fix is attempted.
   ** Warning ** GetVertices: Floor is upside down! Tilt angle=[0.0], should be near 180, Surface="STORAGE_8_2_2_FLOOR", in Zone="STORAGE_8_2_2".
   **   ~~~   ** Automatic fix is attempted.
   ** Warning ** GetVertices: Roof/Ceiling is upside down! Tilt angle=[180.0], should be near 0, Surface="STORAGE_8_2_2_CEILING", in Zone="STORAGE_8_2_2".
   **   ~~~   ** Automatic fix is attempted.
   ** Warning ** GetVertices: Floor is upside down! Tilt angle=[0.0], should be near 180, Surface="OFFICE_OPEN_9_0_0_FLOOR", in Zone="OFFICE_OPEN_9_0_0".
   **   ~~~   ** Automatic fix is attempted.
   ** Warning ** GetVertices: Roof/Ceiling is upside down! Tilt angle=[180.0], should be near 0, Surface="OFFICE_OPEN_9_0_0_CEILING", in Zone="OFFICE_OPEN_9_0_0".
   **   ~~~   ** Automatic fix is attempted.
   ** Warning ** GetVertices: Floor is upside down! Tilt angle=[0.0], should be near 180, Surface="OFFICE_PRIVATE_9_0_1_FLOOR", in Zone="OFFICE_PRIVATE_9_0_1".
   **   ~~~   ** Automatic fix is attempted.
   ** Warning ** GetVertices: Roof/Ceiling is upside down! Tilt angle=[180.0], should be near 0, Surface="OFFICE_PRIVATE_9_0_1_CEILING", in Zone="OFFICE_PRIVATE_9_0_1".
   **   ~~~   ** Automatic fix is attempted.
   ** Warning ** GetVertices: Floor is upside down! Tilt angle=[0.0], should be near 180, Surface="STORAGE_9_0_2_FLOOR", in Zone="STORAGE_9_0_2".
   **   ~~~   ** Automatic fix is attempted.
   ** Warning ** GetVertices: Roof/Ceiling is upside down! Tilt angle=[180.0], should be near 0, Surface="STORAGE_9_0_2_CEILING", in Zone="STORAGE_9_0_2".
   **   ~~~   ** Automatic fix is attempted.
   ** Warning ** GetVertices: Floor is upside down! Tilt angle=[0.0], should be near 180, Surface="OFFICE_OPEN_9_1_0_FLOOR", in Zone="OFFICE_OPEN_9_1_0".
   **   ~~~   ** Automatic fix is attempted.
   ** Warning ** GetVertices: Roof/Ceiling is upside down! Tilt angle=[180.0], should be near 0, Surface="OFFICE_OPEN_9_1_0_CEILING", in Zone="OFFICE_OPEN_9_1_0".
   **   ~~~   ** Automatic fix is attempted.
   ** Warning ** GetVertices: Floor is upside down! Tilt angle=[0.0], should be near 180, Surface="OFFICE_PRIVATE_9_1_1_FLOOR", in Zone="OFFICE_PRIVATE_9_1_1".
   **   ~~~   ** Automatic fix is attempted.
   ** Warning ** GetVertices: Roof/Ceiling is upside down! Tilt angle=[180.0], should be near 0, Surface="OFFICE_PRIVATE_9_1_1_CEILING", in Zone="OFFICE_PRIVATE_9_1_1".
   **   ~~~   ** Automatic fix is attempted.
   ** Warning ** GetVertices: Floor is upside down! Tilt angle=[0.0], should be near 180, Surface="STORAGE_9_1_2_FLOOR", in Zone="STORAGE_9_1_2".
   **   ~~~   ** Automatic fix is attempted.
   ** Warning ** GetVertices: Roof/Ceiling is upside down! Tilt angle=[180.0], should be near 0, Surface="STORAGE_9_1_2_CEILING", in Zone="STORAGE_9_1_2".
   **   ~~~   ** Automatic fix is attempted.
   ** Warning ** GetVertices: Floor is upside down! Tilt angle=[0.0], should be near 180, Surface="OFFICE_OPEN_9_2_0_FLOOR", in Zone="OFFICE_OPEN_9_2_0".
   **   ~~~   ** Automatic fix is attempted.
   ** Warning ** GetVertices: Roof/Ceiling is upside down! Tilt angle=[180.0], should be near 0, Surface="OFFICE_OPEN_9_2_0_CEILING", in Zone="OFFICE_OPEN_9_2_0".
   **   ~~~   ** Automatic fix is attempted.
   ** Warning ** GetVertices: Floor is upside down! Tilt angle=[0.0], should be near 180, Surface="OFFICE_PRIVATE_9_2_1_FLOOR", in Zone="OFFICE_PRIVATE_9_2_1".
   **   ~~~   ** Automatic fix is attempted.
   ** Warning ** GetVertices: Roof/Ceiling is upside down! Tilt angle=[180.0], should be near 0, Surface="OFFICE_PRIVATE_9_2_1_CEILING", in Zone="OFFICE_PRIVATE_9_2_1".
   **   ~~~   ** Automatic fix is attempted.
   ** Warning ** GetVertices: Floor is upside down! Tilt angle=[0.0], should be near 180, Surface="STORAGE_9_2_2_FLOOR", in Zone="STORAGE_9_2_2".
   **   ~~~   ** Automatic fix is attempted.
   ** Warning ** GetVertices: Roof/Ceiling is upside down! Tilt angle=[180.0], should be near 0, Surface="STORAGE_9_2_2_CEILING", in Zone="STORAGE_9_2_2".
   **   ~~~   ** Automatic fix is attempted.
   ** Warning ** GetSurfaceData: There are 40 coincident/collinear vertices; These have been deleted unless the deletion would bring the number of surface sides < 3.
   **   ~~~   ** For explicit details on each problem surface, use Output:Diagnostics,DisplayExtraWarnings;
   ** Warning ** Indicated Zone Volume <= 0.0 for Zone=OFFICE_OPEN_0_0_0
   **   ~~~   ** The calculated Zone Volume was=-368.60
   **   ~~~   ** The simulation will continue with the Zone Volume set to 10.0 m3. 
   **   ~~~   ** ...use Output:Diagnostics,DisplayExtraWarnings; to show more details on individual zones.
   ** Warning ** Indicated Zone Volume <= 0.0 for Zone=OFFICE_PRIVATE_0_0_1
   **   ~~~   ** The calculated Zone Volume was=-368.60
   **   ~~~   ** The simulation will continue with the Zone Volume set to 10.0 m3. 
   **   ~~~   ** ...use Output:Diagnostics,DisplayExtraWarnings; to show more details on individual zones.
   ** Warning ** Indicated Zone Volume <= 0.0 for Zone=STORAGE_0_0_2
   **   ~~~   ** The calculated Zone Volume was=-368.60
   **   ~~~   ** The simulation will continue with the Zone Volume set to 10.0 m3. 
   **   ~~~   ** ...use Output:Diagnostics,DisplayExtraWarnings; to show more details on individual zones.
   ** Warning ** Indicated Zone Volume <= 0.0 for Zone=OFFICE_OPEN_0_1_0
   **   ~~~   ** The calculated Zone Volume was=-368.60
   **   ~~~   ** The simulation will continue with the Zone Volume set to 10.0 m3. 
   **   ~~~   ** ...use Output:Diagnostics,DisplayExtraWarnings; to show more details on individual zones.
   ** Warning ** Indicated Zone Volume <= 0.0 for Zone=OFFICE_PRIVATE_0_1_1
   **   ~~~   ** The calculated Zone Volume was=-361.34
   **   ~~~   ** The simulation will continue with the Zone Volume set to 10.0 m3. 
   **   ~~~   ** ...use Output:Diagnostics,DisplayExtraWarnings; to show more details on individual zones.
   ** Warning ** Indicated Zone Volume <= 0.0 for Zone=STORAGE_0_1_2
   **   ~~~   ** The calculated Zone Volume was=-368.60
   **   ~~~   ** The simulation will continue with the Zone Volume set to 10.0 m3. 
   **   ~~~   ** ...use Output:Diagnostics,DisplayExtraWarnings; to show more details on individual zones.
   ** Warning ** Indicated Zone Volume <= 0.0 for Zone=OFFICE_OPEN_0_2_0
   **   ~~~   ** The calculated Zone Volume was=-368.60
   **   ~~~   ** The simulation will continue with the Zone Volume set to 10.0 m3. 
   **   ~~~   ** ...use Output:Diagnostics,DisplayExtraWarnings; to show more details on individual zones.
   ** Warning ** Indicated Zone Volume <= 0.0 for Zone=OFFICE_PRIVATE_0_2_1
   **   ~~~   ** The calculated Zone Volume was=-146.12
   **   ~~~   ** The simulation will continue with the Zone Volume set to 10.0 m3. 
   **   ~~~   ** ...use Output:Diagnostics,DisplayExtraWarnings; to show more details on individual zones.
   ** Warning ** Indicated Zone Volume <= 0.0 for Zone=STORAGE_0_2_2
   **   ~~~   ** The calculated Zone Volume was=-368.60
   **   ~~~   ** The simulation will continue with the Zone Volume set to 10.0 m3. 
   **   ~~~   ** ...use Output:Diagnostics,DisplayExtraWarnings; to show more details on individual zones.
   ** Warning ** Indicated Zone Volume <= 0.0 for Zone=OFFICE_OPEN_1_0_0
   **   ~~~   ** The calculated Zone Volume was=-368.60
   **   ~~~   ** The simulation will continue with the Zone Volume set to 10.0 m3. 
   **   ~~~   ** ...use Output:Diagnostics,DisplayExtraWarnings; to show more details on individual zones.
   ** Warning ** Indicated Zone Volume <= 0.0 for Zone=OFFICE_PRIVATE_1_0_1
   **   ~~~   ** The calculated Zone Volume was=-368.60
   **   ~~~   ** The simulation will continue with the Zone Volume set to 10.0 m3. 
   **   ~~~   ** ...use Output:Diagnostics,DisplayExtraWarnings; to show more details on individual zones.
   ** Warning ** Indicated Zone Volume <= 0.0 for Zone=STORAGE_1_0_2
   **   ~~~   ** The calculated Zone Volume was=-368.60
   **   ~~~   ** The simulation will continue with the Zone Volume set to 10.0 m3. 
   **   ~~~   ** ...use Output:Diagnostics,DisplayExtraWarnings; to show more details on individual zones.
   ** Warning ** Indicated Zone Volume <= 0.0 for Zone=OFFICE_OPEN_1_1_0
   **   ~~~   ** The calculated Zone Volume was=-368.60
   **   ~~~   ** The simulation will continue with the Zone Volume set to 10.0 m3. 
   **   ~~~   ** ...use Output:Diagnostics,DisplayExtraWarnings; to show more details on individual zones.
   ** Warning ** Indicated Zone Volume <= 0.0 for Zone=OFFICE_PRIVATE_1_1_1
   **   ~~~   ** The calculated Zone Volume was=-361.34
   **   ~~~   ** The simulation will continue with the Zone Volume set to 10.0 m3. 
   **   ~~~   ** ...use Output:Diagnostics,DisplayExtraWarnings; to show more details on individual zones.
   ** Warning ** Indicated Zone Volume <= 0.0 for Zone=STORAGE_1_1_2
   **   ~~~   ** The calculated Zone Volume was=-368.60
   **   ~~~   ** The simulation will continue with the Zone Volume set to 10.0 m3. 
   **   ~~~   ** ...use Output:Diagnostics,DisplayExtraWarnings; to show more details on individual zones.
   ** Warning ** Indicated Zone Volume <= 0.0 for Zone=OFFICE_OPEN_1_2_0
   **   ~~~   ** The calculated Zone Volume was=-368.60
   **   ~~~   ** The simulation will continue with the Zone Volume set to 10.0 m3. 
   **   ~~~   ** ...use Output:Diagnostics,DisplayExtraWarnings; to show more details on individual zones.
   ** Warning ** Indicated Zone Volume <= 0.0 for Zone=OFFICE_PRIVATE_1_2_1
   **   ~~~   ** The calculated Zone Volume was=-146.12
   **   ~~~   ** The simulation will continue with the Zone Volume set to 10.0 m3. 
   **   ~~~   ** ...use Output:Diagnostics,DisplayExtraWarnings; to show more details on individual zones.
   ** Warning ** Indicated Zone Volume <= 0.0 for Zone=STORAGE_1_2_2
   **   ~~~   ** The calculated Zone Volume was=-368.60
   **   ~~~   ** The simulation will continue with the Zone Volume set to 10.0 m3. 
   **   ~~~   ** ...use Output:Diagnostics,DisplayExtraWarnings; to show more details on individual zones.
   ** Warning ** Indicated Zone Volume <= 0.0 for Zone=OFFICE_OPEN_2_0_0
   **   ~~~   ** The calculated Zone Volume was=-368.60
   **   ~~~   ** The simulation will continue with the Zone Volume set to 10.0 m3. 
   **   ~~~   ** ...use Output:Diagnostics,DisplayExtraWarnings; to show more details on individual zones.
   ** Warning ** Indicated Zone Volume <= 0.0 for Zone=OFFICE_PRIVATE_2_0_1
   **   ~~~   ** The calculated Zone Volume was=-368.60
   **   ~~~   ** The simulation will continue with the Zone Volume set to 10.0 m3. 
   **   ~~~   ** ...use Output:Diagnostics,DisplayExtraWarnings; to show more details on individual zones.
   ** Warning ** Indicated Zone Volume <= 0.0 for Zone=STORAGE_2_0_2
   **   ~~~   ** The calculated Zone Volume was=-368.60
   **   ~~~   ** The simulation will continue with the Zone Volume set to 10.0 m3. 
   **   ~~~   ** ...use Output:Diagnostics,DisplayExtraWarnings; to show more details on individual zones.
   ** Warning ** Indicated Zone Volume <= 0.0 for Zone=OFFICE_OPEN_2_1_0
   **   ~~~   ** The calculated Zone Volume was=-368.60
   **   ~~~   ** The simulation will continue with the Zone Volume set to 10.0 m3. 
   **   ~~~   ** ...use Output:Diagnostics,DisplayExtraWarnings; to show more details on individual zones.
   ** Warning ** Indicated Zone Volume <= 0.0 for Zone=OFFICE_PRIVATE_2_1_1
   **   ~~~   ** The calculated Zone Volume was=-361.34
   **   ~~~   ** The simulation will continue with the Zone Volume set to 10.0 m3. 
   **   ~~~   ** ...use Output:Diagnostics,DisplayExtraWarnings; to show more details on individual zones.
   ** Warning ** Indicated Zone Volume <= 0.0 for Zone=STORAGE_2_1_2
   **   ~~~   ** The calculated Zone Volume was=-368.60
   **   ~~~   ** The simulation will continue with the Zone Volume set to 10.0 m3. 
   **   ~~~   ** ...use Output:Diagnostics,DisplayExtraWarnings; to show more details on individual zones.
   ** Warning ** Indicated Zone Volume <= 0.0 for Zone=OFFICE_OPEN_2_2_0
   **   ~~~   ** The calculated Zone Volume was=-368.60
   **   ~~~   ** The simulation will continue with the Zone Volume set to 10.0 m3. 
   **   ~~~   ** ...use Output:Diagnostics,DisplayExtraWarnings; to show more details on individual zones.
   ** Warning ** Indicated Zone Volume <= 0.0 for Zone=OFFICE_PRIVATE_2_2_1
   **   ~~~   ** The calculated Zone Volume was=-146.12
   **   ~~~   ** The simulation will continue with the Zone Volume set to 10.0 m3. 
   **   ~~~   ** ...use Output:Diagnostics,DisplayExtraWarnings; to show more details on individual zones.
   ** Warning ** Indicated Zone Volume <= 0.0 for Zone=STORAGE_2_2_2
   **   ~~~   ** The calculated Zone Volume was=-368.60
   **   ~~~   ** The simulation will continue with the Zone Volume set to 10.0 m3. 
   **   ~~~   ** ...use Output:Diagnostics,DisplayExtraWarnings; to show more details on individual zones.
   ** Warning ** Indicated Zone Volume <= 0.0 for Zone=OFFICE_OPEN_3_0_0
   **   ~~~   ** The calculated Zone Volume was=-368.60
   **   ~~~   ** The simulation will continue with the Zone Volume set to 10.0 m3. 
   **   ~~~   ** ...use Output:Diagnostics,DisplayExtraWarnings; to show more details on individual zones.
   ** Warning ** Indicated Zone Volume <= 0.0 for Zone=OFFICE_PRIVATE_3_0_1
   **   ~~~   ** The calculated Zone Volume was=-368.60
   **   ~~~   ** The simulation will continue with the Zone Volume set to 10.0 m3. 
   **   ~~~   ** ...use Output:Diagnostics,DisplayExtraWarnings; to show more details on individual zones.
   ** Warning ** Indicated Zone Volume <= 0.0 for Zone=STORAGE_3_0_2
   **   ~~~   ** The calculated Zone Volume was=-368.60
   **   ~~~   ** The simulation will continue with the Zone Volume set to 10.0 m3. 
   **   ~~~   ** ...use Output:Diagnostics,DisplayExtraWarnings; to show more details on individual zones.
   ** Warning ** Indicated Zone Volume <= 0.0 for Zone=OFFICE_OPEN_3_1_0
   **   ~~~   ** The calculated Zone Volume was=-368.60
   **   ~~~   ** The simulation will continue with the Zone Volume set to 10.0 m3. 
   **   ~~~   ** ...use Output:Diagnostics,DisplayExtraWarnings; to show more details on individual zones.
   ** Warning ** Indicated Zone Volume <= 0.0 for Zone=OFFICE_PRIVATE_3_1_1
   **   ~~~   ** The calculated Zone Volume was=-361.34
   **   ~~~   ** The simulation will continue with the Zone Volume set to 10.0 m3. 
   **   ~~~   ** ...use Output:Diagnostics,DisplayExtraWarnings; to show more details on individual zones.
   ** Warning ** Indicated Zone Volume <= 0.0 for Zone=STORAGE_3_1_2
   **   ~~~   ** The calculated Zone Volume was=-368.60
   **   ~~~   ** The simulation will continue with the Zone Volume set to 10.0 m3. 
   **   ~~~   ** ...use Output:Diagnostics,DisplayExtraWarnings; to show more details on individual zones.
   ** Warning ** Indicated Zone Volume <= 0.0 for Zone=OFFICE_OPEN_3_2_0
   **   ~~~   ** The calculated Zone Volume was=-368.60
   **   ~~~   ** The simulation will continue with the Zone Volume set to 10.0 m3. 
   **   ~~~   ** ...use Output:Diagnostics,DisplayExtraWarnings; to show more details on individual zones.
   ** Warning ** Indicated Zone Volume <= 0.0 for Zone=OFFICE_PRIVATE_3_2_1
   **   ~~~   ** The calculated Zone Volume was=-146.12
   **   ~~~   ** The simulation will continue with the Zone Volume set to 10.0 m3. 
   **   ~~~   ** ...use Output:Diagnostics,DisplayExtraWarnings; to show more details on individual zones.
   ** Warning ** Indicated Zone Volume <= 0.0 for Zone=STORAGE_3_2_2
   **   ~~~   ** The calculated Zone Volume was=-368.60
   **   ~~~   ** The simulation will continue with the Zone Volume set to 10.0 m3. 
   **   ~~~   ** ...use Output:Diagnostics,DisplayExtraWarnings; to show more details on individual zones.
   ** Warning ** Indicated Zone Volume <= 0.0 for Zone=OFFICE_OPEN_4_0_0
   **   ~~~   ** The calculated Zone Volume was=-368.60
   **   ~~~   ** The simulation will continue with the Zone Volume set to 10.0 m3. 
   **   ~~~   ** ...use Output:Diagnostics,DisplayExtraWarnings; to show more details on individual zones.
   ** Warning ** Indicated Zone Volume <= 0.0 for Zone=OFFICE_PRIVATE_4_0_1
   **   ~~~   ** The calculated Zone Volume was=-368.60
   **   ~~~   ** The simulation will continue with the Zone Volume set to 10.0 m3. 
   **   ~~~   ** ...use Output:Diagnostics,DisplayExtraWarnings; to show more details on individual zones.
   ** Warning ** Indicated Zone Volume <= 0.0 for Zone=STORAGE_4_0_2
   **   ~~~   ** The calculated Zone Volume was=-368.60
   **   ~~~   ** The simulation will continue with the Zone Volume set to 10.0 m3. 
   **   ~~~   ** ...use Output:Diagnostics,DisplayExtraWarnings; to show more details on individual zones.
   ** Warning ** Indicated Zone Volume <= 0.0 for Zone=OFFICE_OPEN_4_1_0
   **   ~~~   ** The calculated Zone Volume was=-368.60
   **   ~~~   ** The simulation will continue with the Zone Volume set to 10.0 m3. 
   **   ~~~   ** ...use Output:Diagnostics,DisplayExtraWarnings; to show more details on individual zones.
   ** Warning ** Indicated Zone Volume <= 0.0 for Zone=OFFICE_PRIVATE_4_1_1
   **   ~~~   ** The calculated Zone Volume was=-361.34
   **   ~~~   ** The simulation will continue with the Zone Volume set to 10.0 m3. 
   **   ~~~   ** ...use Output:Diagnostics,DisplayExtraWarnings; to show more details on individual zones.
   ** Warning ** Indicated Zone Volume <= 0.0 for Zone=STORAGE_4_1_2
   **   ~~~   ** The calculated Zone Volume was=-368.60
   **   ~~~   ** The simulation will continue with the Zone Volume set to 10.0 m3. 
   **   ~~~   ** ...use Output:Diagnostics,DisplayExtraWarnings; to show more details on individual zones.
   ** Warning ** Indicated Zone Volume <= 0.0 for Zone=OFFICE_OPEN_4_2_0
   **   ~~~   ** The calculated Zone Volume was=-368.60
   **   ~~~   ** The simulation will continue with the Zone Volume set to 10.0 m3. 
   **   ~~~   ** ...use Output:Diagnostics,DisplayExtraWarnings; to show more details on individual zones.
   ** Warning ** Indicated Zone Volume <= 0.0 for Zone=OFFICE_PRIVATE_4_2_1
   **   ~~~   ** The calculated Zone Volume was=-146.12
   **   ~~~   ** The simulation will continue with the Zone Volume set to 10.0 m3. 
   **   ~~~   ** ...use Output:Diagnostics,DisplayExtraWarnings; to show more details on individual zones.
   ** Warning ** Indicated Zone Volume <= 0.0 for Zone=STORAGE_4_2_2
   **   ~~~   ** The calculated Zone Volume was=-368.60
   **   ~~~   ** The simulation will continue with the Zone Volume set to 10.0 m3. 
   **   ~~~   ** ...use Output:Diagnostics,DisplayExtraWarnings; to show more details on individual zones.
   ** Warning ** Indicated Zone Volume <= 0.0 for Zone=OFFICE_OPEN_5_0_0
   **   ~~~   ** The calculated Zone Volume was=-368.60
   **   ~~~   ** The simulation will continue with the Zone Volume set to 10.0 m3. 
   **   ~~~   ** ...use Output:Diagnostics,DisplayExtraWarnings; to show more details on individual zones.
   ** Warning ** Indicated Zone Volume <= 0.0 for Zone=OFFICE_PRIVATE_5_0_1
   **   ~~~   ** The calculated Zone Volume was=-368.60
   **   ~~~   ** The simulation will continue with the Zone Volume set to 10.0 m3. 
   **   ~~~   ** ...use Output:Diagnostics,DisplayExtraWarnings; to show more details on individual zones.
   ** Warning ** Indicated Zone Volume <= 0.0 for Zone=STORAGE_5_0_2
   **   ~~~   ** The calculated Zone Volume was=-368.60
   **   ~~~   ** The simulation will continue with the Zone Volume set to 10.0 m3. 
   **   ~~~   ** ...use Output:Diagnostics,DisplayExtraWarnings; to show more details on individual zones.
   ** Warning ** Indicated Zone Volume <= 0.0 for Zone=OFFICE_OPEN_5_1_0
   **   ~~~   ** The calculated Zone Volume was=-368.60
   **   ~~~   ** The simulation will continue with the Zone Volume set to 10.0 m3. 
   **   ~~~   ** ...use Output:Diagnostics,DisplayExtraWarnings; to show more details on individual zones.
   ** Warning ** Indicated Zone Volume <= 0.0 for Zone=OFFICE_PRIVATE_5_1_1
   **   ~~~   ** The calculated Zone Volume was=-361.34
   **   ~~~   ** The simulation will continue with the Zone Volume set to 10.0 m3. 
   **   ~~~   ** ...use Output:Diagnostics,DisplayExtraWarnings; to show more details on individual zones.
   ** Warning ** Indicated Zone Volume <= 0.0 for Zone=STORAGE_5_1_2
   **   ~~~   ** The calculated Zone Volume was=-368.60
   **   ~~~   ** The simulation will continue with the Zone Volume set to 10.0 m3. 
   **   ~~~   ** ...use Output:Diagnostics,DisplayExtraWarnings; to show more details on individual zones.
   ** Warning ** Indicated Zone Volume <= 0.0 for Zone=OFFICE_OPEN_5_2_0
   **   ~~~   ** The calculated Zone Volume was=-368.60
   **   ~~~   ** The simulation will continue with the Zone Volume set to 10.0 m3. 
   **   ~~~   ** ...use Output:Diagnostics,DisplayExtraWarnings; to show more details on individual zones.
   ** Warning ** Indicated Zone Volume <= 0.0 for Zone=OFFICE_PRIVATE_5_2_1
   **   ~~~   ** The calculated Zone Volume was=-146.12
   **   ~~~   ** The simulation will continue with the Zone Volume set to 10.0 m3. 
   **   ~~~   ** ...use Output:Diagnostics,DisplayExtraWarnings; to show more details on individual zones.
   ** Warning ** Indicated Zone Volume <= 0.0 for Zone=STORAGE_5_2_2
   **   ~~~   ** The calculated Zone Volume was=-368.60
   **   ~~~   ** The simulation will continue with the Zone Volume set to 10.0 m3. 
   **   ~~~   ** ...use Output:Diagnostics,DisplayExtraWarnings; to show more details on individual zones.
   ** Warning ** Indicated Zone Volume <= 0.0 for Zone=OFFICE_OPEN_6_0_0
   **   ~~~   ** The calculated Zone Volume was=-368.60
   **   ~~~   ** The simulation will continue with the Zone Volume set to 10.0 m3. 
   **   ~~~   ** ...use Output:Diagnostics,DisplayExtraWarnings; to show more details on individual zones.
   ** Warning ** Indicated Zone Volume <= 0.0 for Zone=OFFICE_PRIVATE_6_0_1
   **   ~~~   ** The calculated Zone Volume was=-368.60
   **   ~~~   ** The simulation will continue with the Zone Volume set to 10.0 m3. 
   **   ~~~   ** ...use Output:Diagnostics,DisplayExtraWarnings; to show more details on individual zones.
   ** Warning ** Indicated Zone Volume <= 0.0 for Zone=STORAGE_6_0_2
   **   ~~~   ** The calculated Zone Volume was=-368.60
   **   ~~~   ** The simulation will continue with the Zone Volume set to 10.0 m3. 
   **   ~~~   ** ...use Output:Diagnostics,DisplayExtraWarnings; to show more details on individual zones.
   ** Warning ** Indicated Zone Volume <= 0.0 for Zone=OFFICE_OPEN_6_1_0
   **   ~~~   ** The calculated Zone Volume was=-368.60
   **   ~~~   ** The simulation will continue with the Zone Volume set to 10.0 m3. 
   **   ~~~   ** ...use Output:Diagnostics,DisplayExtraWarnings; to show more details on individual zones.
   ** Warning ** Indicated Zone Volume <= 0.0 for Zone=OFFICE_PRIVATE_6_1_1
   **   ~~~   ** The calculated Zone Volume was=-361.34
   **   ~~~   ** The simulation will continue with the Zone Volume set to 10.0 m3. 
   **   ~~~   ** ...use Output:Diagnostics,DisplayExtraWarnings; to show more details on individual zones.
   ** Warning ** Indicated Zone Volume <= 0.0 for Zone=STORAGE_6_1_2
   **   ~~~   ** The calculated Zone Volume was=-368.60
   **   ~~~   ** The simulation will continue with the Zone Volume set to 10.0 m3. 
   **   ~~~   ** ...use Output:Diagnostics,DisplayExtraWarnings; to show more details on individual zones.
   ** Warning ** Indicated Zone Volume <= 0.0 for Zone=OFFICE_OPEN_6_2_0
   **   ~~~   ** The calculated Zone Volume was=-368.60
   **   ~~~   ** The simulation will continue with the Zone Volume set to 10.0 m3. 
   **   ~~~   ** ...use Output:Diagnostics,DisplayExtraWarnings; to show more details on individual zones.
   ** Warning ** Indicated Zone Volume <= 0.0 for Zone=OFFICE_PRIVATE_6_2_1
   **   ~~~   ** The calculated Zone Volume was=-146.12
   **   ~~~   ** The simulation will continue with the Zone Volume set to 10.0 m3. 
   **   ~~~   ** ...use Output:Diagnostics,DisplayExtraWarnings; to show more details on individual zones.
   ** Warning ** Indicated Zone Volume <= 0.0 for Zone=STORAGE_6_2_2
   **   ~~~   ** The calculated Zone Volume was=-368.60
   **   ~~~   ** The simulation will continue with the Zone Volume set to 10.0 m3. 
   **   ~~~   ** ...use Output:Diagnostics,DisplayExtraWarnings; to show more details on individual zones.
   ** Warning ** Indicated Zone Volume <= 0.0 for Zone=OFFICE_OPEN_7_0_0
   **   ~~~   ** The calculated Zone Volume was=-368.60
   **   ~~~   ** The simulation will continue with the Zone Volume set to 10.0 m3. 
   **   ~~~   ** ...use Output:Diagnostics,DisplayExtraWarnings; to show more details on individual zones.
   ** Warning ** Indicated Zone Volume <= 0.0 for Zone=OFFICE_PRIVATE_7_0_1
   **   ~~~   ** The calculated Zone Volume was=-368.60
   **   ~~~   ** The simulation will continue with the Zone Volume set to 10.0 m3. 
   **   ~~~   ** ...use Output:Diagnostics,DisplayExtraWarnings; to show more details on individual zones.
   ** Warning ** Indicated Zone Volume <= 0.0 for Zone=STORAGE_7_0_2
   **   ~~~   ** The calculated Zone Volume was=-368.60
   **   ~~~   ** The simulation will continue with the Zone Volume set to 10.0 m3. 
   **   ~~~   ** ...use Output:Diagnostics,DisplayExtraWarnings; to show more details on individual zones.
   ** Warning ** Indicated Zone Volume <= 0.0 for Zone=OFFICE_OPEN_7_1_0
   **   ~~~   ** The calculated Zone Volume was=-368.60
   **   ~~~   ** The simulation will continue with the Zone Volume set to 10.0 m3. 
   **   ~~~   ** ...use Output:Diagnostics,DisplayExtraWarnings; to show more details on individual zones.
   ** Warning ** Indicated Zone Volume <= 0.0 for Zone=OFFICE_PRIVATE_7_1_1
   **   ~~~   ** The calculated Zone Volume was=-361.34
   **   ~~~   ** The simulation will continue with the Zone Volume set to 10.0 m3. 
   **   ~~~   ** ...use Output:Diagnostics,DisplayExtraWarnings; to show more details on individual zones.
   ** Warning ** Indicated Zone Volume <= 0.0 for Zone=STORAGE_7_1_2
   **   ~~~   ** The calculated Zone Volume was=-368.60
   **   ~~~   ** The simulation will continue with the Zone Volume set to 10.0 m3. 
   **   ~~~   ** ...use Output:Diagnostics,DisplayExtraWarnings; to show more details on individual zones.
   ** Warning ** Indicated Zone Volume <= 0.0 for Zone=OFFICE_OPEN_7_2_0
   **   ~~~   ** The calculated Zone Volume was=-368.60
   **   ~~~   ** The simulation will continue with the Zone Volume set to 10.0 m3. 
   **   ~~~   ** ...use Output:Diagnostics,DisplayExtraWarnings; to show more details on individual zones.
   ** Warning ** Indicated Zone Volume <= 0.0 for Zone=OFFICE_PRIVATE_7_2_1
   **   ~~~   ** The calculated Zone Volume was=-146.12
   **   ~~~   ** The simulation will continue with the Zone Volume set to 10.0 m3. 
   **   ~~~   ** ...use Output:Diagnostics,DisplayExtraWarnings; to show more details on individual zones.
   ** Warning ** Indicated Zone Volume <= 0.0 for Zone=STORAGE_7_2_2
   **   ~~~   ** The calculated Zone Volume was=-368.60
   **   ~~~   ** The simulation will continue with the Zone Volume set to 10.0 m3. 
   **   ~~~   ** ...use Output:Diagnostics,DisplayExtraWarnings; to show more details on individual zones.
   ** Warning ** Indicated Zone Volume <= 0.0 for Zone=OFFICE_OPEN_8_0_0
   **   ~~~   ** The calculated Zone Volume was=-368.60
   **   ~~~   ** The simulation will continue with the Zone Volume set to 10.0 m3. 
   **   ~~~   ** ...use Output:Diagnostics,DisplayExtraWarnings; to show more details on individual zones.
   ** Warning ** Indicated Zone Volume <= 0.0 for Zone=OFFICE_PRIVATE_8_0_1
   **   ~~~   ** The calculated Zone Volume was=-368.60
   **   ~~~   ** The simulation will continue with the Zone Volume set to 10.0 m3. 
   **   ~~~   ** ...use Output:Diagnostics,DisplayExtraWarnings; to show more details on individual zones.
   ** Warning ** Indicated Zone Volume <= 0.0 for Zone=STORAGE_8_0_2
   **   ~~~   ** The calculated Zone Volume was=-368.60
   **   ~~~   ** The simulation will continue with the Zone Volume set to 10.0 m3. 
   **   ~~~   ** ...use Output:Diagnostics,DisplayExtraWarnings; to show more details on individual zones.
   ** Warning ** Indicated Zone Volume <= 0.0 for Zone=OFFICE_OPEN_8_1_0
   **   ~~~   ** The calculated Zone Volume was=-368.60
   **   ~~~   ** The simulation will continue with the Zone Volume set to 10.0 m3. 
   **   ~~~   ** ...use Output:Diagnostics,DisplayExtraWarnings; to show more details on individual zones.
   ** Warning ** Indicated Zone Volume <= 0.0 for Zone=OFFICE_PRIVATE_8_1_1
   **   ~~~   ** The calculated Zone Volume was=-361.34
   **   ~~~   ** The simulation will continue with the Zone Volume set to 10.0 m3. 
   **   ~~~   ** ...use Output:Diagnostics,DisplayExtraWarnings; to show more details on individual zones.
   ** Warning ** Indicated Zone Volume <= 0.0 for Zone=STORAGE_8_1_2
   **   ~~~   ** The calculated Zone Volume was=-368.60
   **   ~~~   ** The simulation will continue with the Zone Volume set to 10.0 m3. 
   **   ~~~   ** ...use Output:Diagnostics,DisplayExtraWarnings; to show more details on individual zones.
   ** Warning ** Indicated Zone Volume <= 0.0 for Zone=OFFICE_OPEN_8_2_0
   **   ~~~   ** The calculated Zone Volume was=-368.60
   **   ~~~   ** The simulation will continue with the Zone Volume set to 10.0 m3. 
   **   ~~~   ** ...use Output:Diagnostics,DisplayExtraWarnings; to show more details on individual zones.
   ** Warning ** Indicated Zone Volume <= 0.0 for Zone=OFFICE_PRIVATE_8_2_1
   **   ~~~   ** The calculated Zone Volume was=-146.12
   **   ~~~   ** The simulation will continue with the Zone Volume set to 10.0 m3. 
   **   ~~~   ** ...use Output:Diagnostics,DisplayExtraWarnings; to show more details on individual zones.
   ** Warning ** Indicated Zone Volume <= 0.0 for Zone=STORAGE_8_2_2
   **   ~~~   ** The calculated Zone Volume was=-368.60
   **   ~~~   ** The simulation will continue with the Zone Volume set to 10.0 m3. 
   **   ~~~   ** ...use Output:Diagnostics,DisplayExtraWarnings; to show more details on individual zones.
   ** Warning ** Indicated Zone Volume <= 0.0 for Zone=OFFICE_OPEN_9_0_0
   **   ~~~   ** The calculated Zone Volume was=-368.60
   **   ~~~   ** The simulation will continue with the Zone Volume set to 10.0 m3. 
   **   ~~~   ** ...use Output:Diagnostics,DisplayExtraWarnings; to show more details on individual zones.
   ** Warning ** Indicated Zone Volume <= 0.0 for Zone=OFFICE_PRIVATE_9_0_1
   **   ~~~   ** The calculated Zone Volume was=-368.60
   **   ~~~   ** The simulation will continue with the Zone Volume set to 10.0 m3. 
   **   ~~~   ** ...use Output:Diagnostics,DisplayExtraWarnings; to show more details on individual zones.
   ** Warning ** Indicated Zone Volume <= 0.0 for Zone=STORAGE_9_0_2
   **   ~~~   ** The calculated Zone Volume was=-368.60
   **   ~~~   ** The simulation will continue with the Zone Volume set to 10.0 m3. 
   **   ~~~   ** ...use Output:Diagnostics,DisplayExtraWarnings; to show more details on individual zones.
   ** Warning ** Indicated Zone Volume <= 0.0 for Zone=OFFICE_OPEN_9_1_0
   **   ~~~   ** The calculated Zone Volume was=-368.60
   **   ~~~   ** The simulation will continue with the Zone Volume set to 10.0 m3. 
   **   ~~~   ** ...use Output:Diagnostics,DisplayExtraWarnings; to show more details on individual zones.
   ** Warning ** Indicated Zone Volume <= 0.0 for Zone=OFFICE_PRIVATE_9_1_1
   **   ~~~   ** The calculated Zone Volume was=-361.34
   **   ~~~   ** The simulation will continue with the Zone Volume set to 10.0 m3. 
   **   ~~~   ** ...use Output:Diagnostics,DisplayExtraWarnings; to show more details on individual zones.
   ** Warning ** Indicated Zone Volume <= 0.0 for Zone=STORAGE_9_1_2
   **   ~~~   ** The calculated Zone Volume was=-368.60
   **   ~~~   ** The simulation will continue with the Zone Volume set to 10.0 m3. 
   **   ~~~   ** ...use Output:Diagnostics,DisplayExtraWarnings; to show more details on individual zones.
   ** Warning ** Indicated Zone Volume <= 0.0 for Zone=OFFICE_OPEN_9_2_0
   **   ~~~   ** The calculated Zone Volume was=-368.60
   **   ~~~   ** The simulation will continue with the Zone Volume set to 10.0 m3. 
   **   ~~~   ** ...use Output:Diagnostics,DisplayExtraWarnings; to show more details on individual zones.
   ** Warning ** Indicated Zone Volume <= 0.0 for Zone=OFFICE_PRIVATE_9_2_1
   **   ~~~   ** The calculated Zone Volume was=-146.12
   **   ~~~   ** The simulation will continue with the Zone Volume set to 10.0 m3. 
   **   ~~~   ** ...use Output:Diagnostics,DisplayExtraWarnings; to show more details on individual zones.
   ** Warning ** Indicated Zone Volume <= 0.0 for Zone=STORAGE_9_2_2
   **   ~~~   ** The calculated Zone Volume was=-368.60
   **   ~~~   ** The simulation will continue with the Zone Volume set to 10.0 m3. 
   **   ~~~   ** ...use Output:Diagnostics,DisplayExtraWarnings; to show more details on individual zones.
   ** Severe  ** Problem in interior solar distribution calculation (CHKBKS)
   **   ~~~   **    Solar Distribution = FullInteriorExterior will not work in Zone=OFFICE_OPEN_0_0_0
   **   ~~~   **    because one or more of vertices, such as Vertex 2 of back surface=OFFICE_OPEN_0_0_0_WALL_2, is in front of receiving surface=OFFICE_OPEN_0_0_0_WALL_1
   **   ~~~   **    (Dot Product indicator=            552.8953)
   **   ~~~   **    Check surface geometry; if OK, use Solar Distribution = FullExterior instead. Use Output:Diagnostics, DisplayExtraWarnings; for more details.
   ** Severe  ** Problem in interior solar distribution calculation (CHKBKS)
   **   ~~~   **    Solar Distribution = FullInteriorExterior will not work in Zone=OFFICE_OPEN_0_0_0
   **   ~~~   **    because one or more of vertices, such as Vertex 1 of back surface=OFFICE_OPEN_0_0_0_WALL_3, is in front of receiving surface=OFFICE_OPEN_0_0_0_WALL_1
   **   ~~~   **    (Dot Product indicator=            552.8953)
   **   ~~~   **    Check surface geometry; if OK, use Solar Distribution = FullExterior instead. Use Output:Diagnostics, DisplayExtraWarnings; for more details.
   ** Severe  ** Problem in interior solar distribution calculation (CHKBKS)
   **   ~~~   **    Solar Distribution = FullInteriorExterior will not work in Zone=OFFICE_OPEN_0_0_0
   **   ~~~   **    because one or more of vertices, such as Vertex 1 of back surface=OFFICE_OPEN_0_0_0_WALL_4, is in front of receiving surface=OFFICE_OPEN_0_0_0_WALL_1
   **   ~~~   **    (Dot Product indicator=            552.8953)
   **   ~~~   **    Check surface geometry; if OK, use Solar Distribution = FullExterior instead. Use Output:Diagnostics, DisplayExtraWarnings; for more details.
   ** Severe  ** Problem in interior solar distribution calculation (CHKBKS)
   **   ~~~   **    Solar Distribution = FullInteriorExterior will not work in Zone=OFFICE_OPEN_0_0_0
   **   ~~~   **    because one or more of vertices, such as Vertex 3 of back surface=OFFICE_OPEN_0_0_0_FLOOR, is in front of receiving surface=OFFICE_OPEN_0_0_0_WALL_1
   **   ~~~   **    (Dot Product indicator=            552.8953)
   **   ~~~   **    Check surface geometry; if OK, use Solar Distribution = FullExterior instead. Use Output:Diagnostics, DisplayExtraWarnings; for more details.
   ** Severe  ** Problem in interior solar distribution calculation (CHKBKS)
   **   ~~~   **    Solar Distribution = FullInteriorExterior will not work in Zone=OFFICE_OPEN_0_0_0
   **   ~~~   **    because one or more of vertices, such as Vertex 1 of back surface=OFFICE_OPEN_0_0_0_CEILING, is in front of receiving surface=OFFICE_OPEN_0_0_0_WALL_1
   **   ~~~   **    (Dot Product indicator=            552.8953)
   **   ~~~   **    Check surface geometry; if OK, use Solar Distribution = FullExterior instead. Use Output:Diagnostics, DisplayExtraWarnings; for more details.
   ** Severe  ** Problem in interior solar distribution calculation (CHKBKS)
   **   ~~~   **    Solar Distribution = FullInteriorExterior will not work in Zone=OFFICE_OPEN_0_0_0
   **   ~~~   **    because one or more of vertices, such as Vertex 1 of back surface=OFFICE_OPEN_0_0_0_WINDOW_2, is in front of receiving surface=OFFICE_OPEN_0_0_0_WALL_1
   **   ~~~   **    (Dot Product indicator=             82.9350)
   **   ~~~   **    Check surface geometry; if OK, use Solar Distribution = FullExterior instead. Use Output:Diagnostics, DisplayExtraWarnings; for more details.
   ** Severe  ** Problem in interior solar distribution calculation (CHKBKS)
   **   ~~~   **    Solar Distribution = FullInteriorExterior will not work in Zone=OFFICE_OPEN_0_0_0
   **   ~~~   **    because one or more of vertices, such as Vertex 1 of back surface=OFFICE_OPEN_0_0_0_WINDOW_3, is in front of receiving surface=OFFICE_OPEN_0_0_0_WALL_1
   **   ~~~   **    (Dot Product indicator=            554.5502)
   **   ~~~   **    Check surface geometry; if OK, use Solar Distribution = FullExterior instead. Use Output:Diagnostics, DisplayExtraWarnings; for more details.
   ** Severe  ** Problem in interior solar distribution calculation (CHKBKS)
   **   ~~~   **    Solar Distribution = FullInteriorExterior will not work in Zone=OFFICE_OPEN_0_0_0
   **   ~~~   **    because one or more of vertices, such as Vertex 1 of back surface=OFFICE_OPEN_0_0_0_WINDOW_4, is in front of receiving surface=OFFICE_OPEN_0_0_0_WALL_1
   **   ~~~   **    (Dot Product indicator=            469.9604)
   **   ~~~   **    Check surface geometry; if OK, use Solar Distribution = FullExterior instead. Use Output:Diagnostics, DisplayExtraWarnings; for more details.
   ** Severe  ** Problem in interior solar distribution calculation (CHKBKS)
   **   ~~~   **    Solar Distribution = FullInteriorExterior will not work in Zone=OFFICE_OPEN_0_0_0
   **   ~~~   **    because one or more of vertices, such as Vertex 1 of back surface=OFFICE_OPEN_0_0_0_WALL_1, is in front of receiving surface=OFFICE_OPEN_0_0_0_WALL_2
   **   ~~~   **    (Dot Product indicator=            552.8953)
   **   ~~~   **    Check surface geometry; if OK, use Solar Distribution = FullExterior instead. Use Output:Diagnostics, DisplayExtraWarnings; for more details.
   ** Severe  ** Problem in interior solar distribution calculation (CHKBKS)
   **   ~~~   **    Solar Distribution = FullInteriorExterior will not work in Zone=OFFICE_OPEN_0_0_0
   **   ~~~   **    because one or more of vertices, such as Vertex 2 of back surface=OFFICE_OPEN_0_0_0_WALL_3, is in front of receiving surface=OFFICE_OPEN_0_0_0_WALL_2
   **   ~~~   **    (Dot Product indicator=            552.8953)
   **   ~~~   **    Check surface geometry; if OK, use Solar Distribution = FullExterior instead. Use Output:Diagnostics, DisplayExtraWarnings; for more details.
   ** Severe  ** Problem in interior solar distribution calculation (CHKBKS)
   **   ~~~   **    Solar Distribution = FullInteriorExterior will not work in Zone=OFFICE_OPEN_0_0_0
   **   ~~~   **    because one or more of vertices, such as Vertex 1 of back surface=OFFICE_OPEN_0_0_0_WALL_4, is in front of receiving surface=OFFICE_OPEN_0_0_0_WALL_2
   **   ~~~   **    (Dot Product indicator=            552.8953)
   **   ~~~   **    Check surface geometry; if OK, use Solar Distribution = FullExterior instead. Use Output:Diagnostics, DisplayExtraWarnings; for more details.
   ** Severe  ** Problem in interior solar distribution calculation (CHKBKS)
   **   ~~~   **    Solar Distribution = FullInteriorExterior will not work in Zone=OFFICE_OPEN_0_0_0
   **   ~~~   **    because one or more of vertices, such as Vertex 1 of back surface=OFFICE_OPEN_0_0_0_FLOOR, is in front of receiving surface=OFFICE_OPEN_0_0_0_WALL_2
   **   ~~~   **    (Dot Product indicator=            552.8953)
   **   ~~~   **    Check surface geometry; if OK, use Solar Distribution = FullExterior instead. Use Output:Diagnostics, DisplayExtraWarnings; for more details.
   ** Severe  ** Problem in interior solar distribution calculation (CHKBKS)
   **   ~~~   **    Solar Distribution = FullInteriorExterior will not work in Zone=OFFICE_OPEN_0_0_0
   **   ~~~   **    because one or more of vertices, such as Vertex 1 of back surface=OFFICE_OPEN_0_0_0_CEILING, is in front of receiving surface=OFFICE_OPEN_0_0_0_WALL_2
   **   ~~~   **    (Dot Product indicator=            552.8953)
   **   ~~~   **    Check surface geometry; if OK, use Solar Distribution = FullExterior instead. Use Output:Diagnostics, DisplayExtraWarnings; for more details.
   ** Severe  ** Problem in interior solar distribution calculation (CHKBKS)
   **   ~~~   **    Solar Distribution = FullInteriorExterior will not work in Zone=OFFICE_OPEN_0_0_0
   **   ~~~   **    because one or more of vertices, such as Vertex 1 of back surface=OFFICE_OPEN_0_0_0_WINDOW_1, is in front of receiving surface=OFFICE_OPEN_0_0_0_WALL_2
   **   ~~~   **    (Dot Product indicator=            469.9615)
   **   ~~~   **    Check surface geometry; if OK, use Solar Distribution = FullExterior instead. Use Output:Diagnostics, DisplayExtraWarnings; for more details.
   ** Severe  ** Problem in interior solar distribution calculation (CHKBKS)
   **   ~~~   **    Solar Distribution = FullInteriorExterior will not work in Zone=OFFICE_OPEN_0_0_0
   **   ~~~   **    because one or more of vertices, such as Vertex 1 of back surface=OFFICE_OPEN_0_0_0_WINDOW_3, is in front of receiving surface=OFFICE_OPEN_0_0_0_WALL_2
   **   ~~~   **    (Dot Product indicator=             82.9338)
   **   ~~~   **    Check surface geometry; if OK, use Solar Distribution = FullExterior instead. Use Output:Diagnostics, DisplayExtraWarnings; for more details.
   ** Severe  ** Problem in interior solar distribution calculation (CHKBKS)
   **   ~~~   **    Solar Distribution = FullInteriorExterior will not work in Zone=OFFICE_OPEN_0_0_0
[...]
   **   ~~~   ** Expected range for VolumeFlowPerRatedTotalCapacity=[2.684E-005--6.713E-005]
   **   ~~~   ** Possible causes include inconsistent air flow rates in system components,
   **   ~~~   ** or variable air volume [VAV] system using incorrect coil type.
   ** Warning ** CalcDoe2DXCoil: Coil:Cooling:DX:SingleSpeed="STORAGE_3_0_2_Z44_COOLINGCOILDX" - Air volume flow rate per watt of rated total cooling capacity is out of range at 1.038E-005 m3/s/W.
   **   ~~~   **  Environment=YEAR ROUND RUN PERIOD, at Simulation time=04/15 11:38 - 11:45
   **   ~~~   ** Expected range for VolumeFlowPerRatedTotalCapacity=[2.684E-005--6.713E-005]
   **   ~~~   ** Possible causes include inconsistent air flow rates in system components,
   **   ~~~   ** or variable air volume [VAV] system using incorrect coil type.
   ** Warning ** CalcDoe2DXCoil: Coil:Cooling:DX:SingleSpeed="STORAGE_5_2_2_Z75_COOLINGCOILDX" - Air volume flow rate per watt of rated total cooling capacity is out of range at 1.038E-005 m3/s/W.
   **   ~~~   **  Environment=YEAR ROUND RUN PERIOD, at Simulation time=04/15 11:38 - 11:45
   **   ~~~   ** Expected range for VolumeFlowPerRatedTotalCapacity=[2.684E-005--6.713E-005]
   **   ~~~   ** Possible causes include inconsistent air flow rates in system components,
   **   ~~~   ** or variable air volume [VAV] system using incorrect coil type.
   ** Warning ** CalcDoe2DXCoil: Coil:Cooling:DX:SingleSpeed="STORAGE_6_2_2_Z87_COOLINGCOILDX" - Air volume flow rate per watt of rated total cooling capacity is out of range at 1.037E-005 m3/s/W.
   **   ~~~   **  Environment=YEAR ROUND RUN PERIOD, at Simulation time=04/15 11:38 - 11:45
   **   ~~~   ** Expected range for VolumeFlowPerRatedTotalCapacity=[2.684E-005--6.713E-005]
   **   ~~~   ** Possible causes include inconsistent air flow rates in system components,
   **   ~~~   ** or variable air volume [VAV] system using incorrect coil type.
   ** Warning ** CalcDoe2DXCoil: Coil:Cooling:DX:SingleSpeed="STORAGE_7_0_2_Z92_COOLINGCOILDX" - Air volume flow rate per watt of rated total cooling capacity is out of range at 1.038E-005 m3/s/W.
   **   ~~~   **  Environment=YEAR ROUND RUN PERIOD, at Simulation time=04/15 11:38 - 11:45
   **   ~~~   ** Expected range for VolumeFlowPerRatedTotalCapacity=[2.684E-005--6.713E-005]
   **   ~~~   ** Possible causes include inconsistent air flow rates in system components,
   **   ~~~   ** or variable air volume [VAV] system using incorrect coil type.
   ** Warning ** CalcDoe2DXCoil: Coil:Cooling:DX:SingleSpeed "STORAGE_0_2_2_Z13_COOLINGCOILDX" - Full load outlet air dry-bulb temperature < 2C. This indicates the possibility of coil frost/freeze. Outlet temperature = -35.37 C.
   **   ~~~   **  ...Occurrence info = YEAR ROUND RUN PERIOD, 04/15 11:38 - 11:45
   **   ~~~   ** ... Possible reasons for low outlet air dry-bulb temperatures are: This DX coil
   **   ~~~   **    1) may have a low inlet air dry-bulb temperature. Inlet air temperature = 24.243 C.
   **   ~~~   **    2) may have a low air flow rate per watt of cooling capacity. Check inputs.
   **   ~~~   **    3) is used as part of a HX assisted cooling coil which uses a high sensible effectiveness. Check inputs.
   ** Warning ** CalcDoe2DXCoil: Coil:Cooling:DX:SingleSpeed "STORAGE_1_0_2_Z19_COOLINGCOILDX" - Full load outlet air dry-bulb temperature < 2C. This indicates the possibility of coil frost/freeze. Outlet temperature = -35.37 C.
   **   ~~~   **  ...Occurrence info = YEAR ROUND RUN PERIOD, 04/15 11:38 - 11:45
   **   ~~~   ** ... Possible reasons for low outlet air dry-bulb temperatures are: This DX coil
   **   ~~~   **    1) may have a low inlet air dry-bulb temperature. Inlet air temperature = 24.210 C.
   **   ~~~   **    2) may have a low air flow rate per watt of cooling capacity. Check inputs.
   **   ~~~   **    3) is used as part of a HX assisted cooling coil which uses a high sensible effectiveness. Check inputs.
   ** Warning ** CalcDoe2DXCoil: Coil:Cooling:DX:SingleSpeed "STORAGE_1_2_2_Z25_COOLINGCOILDX" - Full load outlet air dry-bulb temperature < 2C. This indicates the possibility of coil frost/freeze. Outlet temperature = -35.37 C.
   **   ~~~   **  ...Occurrence info = YEAR ROUND RUN PERIOD, 04/15 11:38 - 11:45
   **   ~~~   ** ... Possible reasons for low outlet air dry-bulb temperatures are: This DX coil
   **   ~~~   **    1) may have a low inlet air dry-bulb temperature. Inlet air temperature = 24.245 C.
   **   ~~~   **    2) may have a low air flow rate per watt of cooling capacity. Check inputs.
   **   ~~~   **    3) is used as part of a HX assisted cooling coil which uses a high sensible effectiveness. Check inputs.
   ** Warning ** CalcDoe2DXCoil: Coil:Cooling:DX:SingleSpeed "STORAGE_3_0_2_Z44_COOLINGCOILDX" - Full load outlet air dry-bulb temperature < 2C. This indicates the possibility of coil frost/freeze. Outlet temperature = -35.38 C.
   **   ~~~   **  ...Occurrence info = YEAR ROUND RUN PERIOD, 04/15 11:38 - 11:45
   **   ~~~   ** ... Possible reasons for low outlet air dry-bulb temperatures are: This DX coil
   **   ~~~   **    1) may have a low inlet air dry-bulb temperature. Inlet air temperature = 24.112 C.
   **   ~~~   **    2) may have a low air flow rate per watt of cooling capacity. Check inputs.
   **   ~~~   **    3) is used as part of a HX assisted cooling coil which uses a high sensible effectiveness. Check inputs.
   ** Warning ** CalcDoe2DXCoil: Coil:Cooling:DX:SingleSpeed "STORAGE_5_2_2_Z75_COOLINGCOILDX" - Full load outlet air dry-bulb temperature < 2C. This indicates the possibility of coil frost/freeze. Outlet temperature = -35.38 C.
   **   ~~~   **  ...Occurrence info = YEAR ROUND RUN PERIOD, 04/15 11:38 - 11:45
   **   ~~~   ** ... Possible reasons for low outlet air dry-bulb temperatures are: This DX coil
   **   ~~~   **    1) may have a low inlet air dry-bulb temperature. Inlet air temperature = 24.177 C.
   **   ~~~   **    2) may have a low air flow rate per watt of cooling capacity. Check inputs.
   **   ~~~   **    3) is used as part of a HX assisted cooling coil which uses a high sensible effectiveness. Check inputs.
   ** Warning ** CalcDoe2DXCoil: Coil:Cooling:DX:SingleSpeed "STORAGE_6_2_2_Z87_COOLINGCOILDX" - Full load outlet air dry-bulb temperature < 2C. This indicates the possibility of coil frost/freeze. Outlet temperature = -35.38 C.
   **   ~~~   **  ...Occurrence info = YEAR ROUND RUN PERIOD, 04/15 11:38 - 11:45
   **   ~~~   ** ... Possible reasons for low outlet air dry-bulb temperatures are: This DX coil
   **   ~~~   **    1) may have a low inlet air dry-bulb temperature. Inlet air temperature = 24.102 C.
   **   ~~~   **    2) may have a low air flow rate per watt of cooling capacity. Check inputs.
   **   ~~~   **    3) is used as part of a HX assisted cooling coil which uses a high sensible effectiveness. Check inputs.
   ** Warning ** CalcDoe2DXCoil: Coil:Cooling:DX:SingleSpeed "STORAGE_7_0_2_Z92_COOLINGCOILDX" - Full load outlet air dry-bulb temperature < 2C. This indicates the possibility of coil frost/freeze. Outlet temperature = -35.37 C.
   **   ~~~   **  ...Occurrence info = YEAR ROUND RUN PERIOD, 04/15 11:38 - 11:45
   **   ~~~   ** ... Possible reasons for low outlet air dry-bulb temperatures are: This DX coil
   **   ~~~   **    1) may have a low inlet air dry-bulb temperature. Inlet air temperature = 24.286 C.
   **   ~~~   **    2) may have a low air flow rate per watt of cooling capacity. Check inputs.
   **   ~~~   **    3) is used as part of a HX assisted cooling coil which uses a high sensible effectiveness. Check inputs.
   ** Warning ** CalcDoe2DXCoil: Coil:Cooling:DX:SingleSpeed="STORAGE_2_1_2_Z34_COOLINGCOILDX" - Air volume flow rate per watt of rated total cooling capacity is out of range at 1.038E-005 m3/s/W.
   **   ~~~   **  Environment=YEAR ROUND RUN PERIOD, at Simulation time=04/15 11:53 - 12:00
   **   ~~~   ** Expected range for VolumeFlowPerRatedTotalCapacity=[2.684E-005--6.713E-005]
   **   ~~~   ** Possible causes include inconsistent air flow rates in system components,
   **   ~~~   ** or variable air volume [VAV] system using incorrect coil type.
   ** Warning ** CalcDoe2DXCoil: Coil:Cooling:DX:SingleSpeed="STORAGE_2_2_2_Z37_COOLINGCOILDX" - Air volume flow rate per watt of rated total cooling capacity is out of range at 1.037E-005 m3/s/W.
   **   ~~~   **  Environment=YEAR ROUND RUN PERIOD, at Simulation time=04/15 11:53 - 12:00
   **   ~~~   ** Expected range for VolumeFlowPerRatedTotalCapacity=[2.684E-005--6.713E-005]
   **   ~~~   ** Possible causes include inconsistent air flow rates in system components,
   **   ~~~   ** or variable air volume [VAV] system using incorrect coil type.
   ** Warning ** CalcDoe2DXCoil: Coil:Cooling:DX:SingleSpeed="STORAGE_3_1_2_Z47_COOLINGCOILDX" - Air volume flow rate per watt of rated total cooling capacity is out of range at 1.037E-005 m3/s/W.
   **   ~~~   **  Environment=YEAR ROUND RUN PERIOD, at Simulation time=04/15 11:53 - 12:00
   **   ~~~   ** Expected range for VolumeFlowPerRatedTotalCapacity=[2.684E-005--6.713E-005]
   **   ~~~   ** Possible causes include inconsistent air flow rates in system components,
   **   ~~~   ** or variable air volume [VAV] system using incorrect coil type.
   ** Warning ** CalcDoe2DXCoil: Coil:Cooling:DX:SingleSpeed="STORAGE_3_2_2_Z50_COOLINGCOILDX" - Air volume flow rate per watt of rated total cooling capacity is out of range at 1.037E-005 m3/s/W.
   **   ~~~   **  Environment=YEAR ROUND RUN PERIOD, at Simulation time=04/15 11:53 - 12:00
   **   ~~~   ** Expected range for VolumeFlowPerRatedTotalCapacity=[2.684E-005--6.713E-005]
   **   ~~~   ** Possible causes include inconsistent air flow rates in system components,
   **   ~~~   ** or variable air volume [VAV] system using incorrect coil type.
   ** Warning ** CalcDoe2DXCoil: Coil:Cooling:DX:SingleSpeed="STORAGE_5_0_2_Z69_COOLINGCOILDX" - Air volume flow rate per watt of rated total cooling capacity is out of range at 1.038E-005 m3/s/W.
   **   ~~~   **  Environment=YEAR ROUND RUN PERIOD, at Simulation time=04/15 11:53 - 12:00
   **   ~~~   ** Expected range for VolumeFlowPerRatedTotalCapacity=[2.684E-005--6.713E-005]
   **   ~~~   ** Possible causes include inconsistent air flow rates in system components,
   **   ~~~   ** or variable air volume [VAV] system using incorrect coil type.
   ** Warning ** CalcDoe2DXCoil: Coil:Cooling:DX:SingleSpeed="STORAGE_5_1_2_Z72_COOLINGCOILDX" - Air volume flow rate per watt of rated total cooling capacity is out of range at 1.037E-005 m3/s/W.
   **   ~~~   **  Environment=YEAR ROUND RUN PERIOD, at Simulation time=04/15 11:53 - 12:00
   **   ~~~   ** Expected range for VolumeFlowPerRatedTotalCapacity=[2.684E-005--6.713E-005]
   **   ~~~   ** Possible causes include inconsistent air flow rates in system components,
   **   ~~~   ** or variable air volume [VAV] system using incorrect coil type.
   ** Warning ** CalcDoe2DXCoil: Coil:Cooling:DX:SingleSpeed="STORAGE_6_0_2_Z81_COOLINGCOILDX" - Air volume flow rate per watt of rated total cooling capacity is out of range at 1.038E-005 m3/s/W.
   **   ~~~   **  Environment=YEAR ROUND RUN PERIOD, at Simulation time=04/15 11:53 - 12:00
   **   ~~~   ** Expected range for VolumeFlowPerRatedTotalCapacity=[2.684E-005--6.713E-005]
   **   ~~~   ** Possible causes include inconsistent air flow rates in system components,
   **   ~~~   ** or variable air volume [VAV] system using incorrect coil type.
   ** Warning ** CalcDoe2DXCoil: Coil:Cooling:DX:SingleSpeed="STORAGE_7_1_2_Z95_COOLINGCOILDX" - Air volume flow rate per watt of rated total cooling capacity is out of range at 1.038E-005 m3/s/W.
   **   ~~~   **  Environment=YEAR ROUND RUN PERIOD, at Simulation time=04/15 11:53 - 12:00
   **   ~~~   ** Expected range for VolumeFlowPerRatedTotalCapacity=[2.684E-005--6.713E-005]
   **   ~~~   ** Possible causes include inconsistent air flow rates in system components,
   **   ~~~   ** or variable air volume [VAV] system using incorrect coil type.
   ** Warning ** CalcDoe2DXCoil: Coil:Cooling:DX:SingleSpeed "STORAGE_2_1_2_Z34_COOLINGCOILDX" - Full load outlet air dry-bulb temperature < 2C. This indicates the possibility of coil frost/freeze. Outlet temperature = -35.14 C.
   **   ~~~   **  ...Occurrence info = YEAR ROUND RUN PERIOD, 04/15 11:53 - 12:00
   **   ~~~   ** ... Possible reasons for low outlet air dry-bulb temperatures are: This DX coil
   **   ~~~   **    1) may have a low inlet air dry-bulb temperature. Inlet air temperature = 24.178 C.
   **   ~~~   **    2) may have a low air flow rate per watt of cooling capacity. Check inputs.
   **   ~~~   **    3) is used as part of a HX assisted cooling coil which uses a high sensible effectiveness. Check inputs.
   ** Warning ** CalcDoe2DXCoil: Coil:Cooling:DX:SingleSpeed "STORAGE_2_2_2_Z37_COOLINGCOILDX" - Full load outlet air dry-bulb temperature < 2C. This indicates the possibility of coil frost/freeze. Outlet temperature = -35.15 C.
   **   ~~~   **  ...Occurrence info = YEAR ROUND RUN PERIOD, 04/15 11:53 - 12:00
   **   ~~~   ** ... Possible reasons for low outlet air dry-bulb temperatures are: This DX coil
   **   ~~~   **    1) may have a low inlet air dry-bulb temperature. Inlet air temperature = 24.121 C.
   **   ~~~   **    2) may have a low air flow rate per watt of cooling capacity. Check inputs.
   **   ~~~   **    3) is used as part of a HX assisted cooling coil which uses a high sensible effectiveness. Check inputs.
   ** Warning ** CalcDoe2DXCoil: Coil:Cooling:DX:SingleSpeed "STORAGE_3_1_2_Z47_COOLINGCOILDX" - Full load outlet air dry-bulb temperature < 2C. This indicates the possibility of coil frost/freeze. Outlet temperature = -35.15 C.
   **   ~~~   **  ...Occurrence info = YEAR ROUND RUN PERIOD, 04/15 11:53 - 12:00
   **   ~~~   ** ... Possible reasons for low outlet air dry-bulb temperatures are: This DX coil
   **   ~~~   **    1) may have a low inlet air dry-bulb temperature. Inlet air temperature = 24.101 C.
   **   ~~~   **    2) may have a low air flow rate per watt of cooling capacity. Check inputs.
   **   ~~~   **    3) is used as part of a HX assisted cooling coil which uses a high sensible effectiveness. Check inputs.
   ** Warning ** CalcDoe2DXCoil: Coil:Cooling:DX:SingleSpeed "STORAGE_3_2_2_Z50_COOLINGCOILDX" - Full load outlet air dry-bulb temperature < 2C. This indicates the possibility of coil frost/freeze. Outlet temperature = -35.15 C.
   **   ~~~   **  ...Occurrence info = YEAR ROUND RUN PERIOD, 04/15 11:53 - 12:00
   **   ~~~   ** ... Possible reasons for low outlet air dry-bulb temperatures are: This DX coil
   **   ~~~   **    1) may have a low inlet air dry-bulb temperature. Inlet air temperature = 24.135 C.
   **   ~~~   **    2) may have a low air flow rate per watt of cooling capacity. Check inputs.
   **   ~~~   **    3) is used as part of a HX assisted cooling coil which uses a high sensible effectiveness. Check inputs.
   ** Warning ** CalcDoe2DXCoil: Coil:Cooling:DX:SingleSpeed "STORAGE_5_0_2_Z69_COOLINGCOILDX" - Full load outlet air dry-bulb temperature < 2C. This indicates the possibility of coil frost/freeze. Outlet temperature = -35.14 C.
   **   ~~~   **  ...Occurrence info = YEAR ROUND RUN PERIOD, 04/15 11:53 - 12:00
   **   ~~~   ** ... Possible reasons for low outlet air dry-bulb temperatures are: This DX coil
   **   ~~~   **    1) may have a low inlet air dry-bulb temperature. Inlet air temperature = 24.294 C.
   **   ~~~   **    2) may have a low air flow rate per watt of cooling capacity. Check inputs.
   **   ~~~   **    3) is used as part of a HX assisted cooling coil which uses a high sensible effectiveness. Check inputs.
   ** Warning ** CalcDoe2DXCoil: Coil:Cooling:DX:SingleSpeed "STORAGE_5_1_2_Z72_COOLINGCOILDX" - Full load outlet air dry-bulb temperature < 2C. This indicates the possibility of coil frost/freeze. Outlet temperature = -35.15 C.
   **   ~~~   **  ...Occurrence info = YEAR ROUND RUN PERIOD, 04/15 11:53 - 12:00
   **   ~~~   ** ... Possible reasons for low outlet air dry-bulb temperatures are: This DX coil
   **   ~~~   **    1) may have a low inlet air dry-bulb temperature. Inlet air temperature = 24.126 C.
   **   ~~~   **    2) may have a low air flow rate per watt of cooling capacity. Check inputs.
   **   ~~~   **    3) is used as part of a HX assisted cooling coil which uses a high sensible effectiveness. Check inputs.
   ** Warning ** CalcDoe2DXCoil: Coil:Cooling:DX:SingleSpeed "STORAGE_6_0_2_Z81_COOLINGCOILDX" - Full load outlet air dry-bulb temperature < 2C. This indicates the possibility of coil frost/freeze. Outlet temperature = -35.14 C.
   **   ~~~   **  ...Occurrence info = YEAR ROUND RUN PERIOD, 04/15 11:53 - 12:00
   **   ~~~   ** ... Possible reasons for low outlet air dry-bulb temperatures are: This DX coil
   **   ~~~   **    1) may have a low inlet air dry-bulb temperature. Inlet air temperature = 24.261 C.
   **   ~~~   **    2) may have a low air flow rate per watt of cooling capacity. Check inputs.
   **   ~~~   **    3) is used as part of a HX assisted cooling coil which uses a high sensible effectiveness. Check inputs.
   ** Warning ** CalcDoe2DXCoil: Coil:Cooling:DX:SingleSpeed "STORAGE_7_1_2_Z95_COOLINGCOILDX" - Full load outlet air dry-bulb temperature < 2C. This indicates the possibility of coil frost/freeze. Outlet temperature = -35.14 C.
   **   ~~~   **  ...Occurrence info = YEAR ROUND RUN PERIOD, 04/15 11:53 - 12:00
   **   ~~~   ** ... Possible reasons for low outlet air dry-bulb temperatures are: This DX coil
   **   ~~~   **    1) may have a low inlet air dry-bulb temperature. Inlet air temperature = 24.206 C.
   **   ~~~   **    2) may have a low air flow rate per watt of cooling capacity. Check inputs.
   **   ~~~   **    3) is used as part of a HX assisted cooling coil which uses a high sensible effectiveness. Check inputs.
   ** Warning ** CalcDoe2DXCoil: Coil:Cooling:DX:SingleSpeed="STORAGE_4_1_2_Z60_COOLINGCOILDX" - Air volume flow rate per watt of rated total cooling capacity is out of range at 1.038E-005 m3/s/W.
   **   ~~~   **  Environment=YEAR ROUND RUN PERIOD, at Simulation time=04/15 12:08 - 12:15
   **   ~~~   ** Expected range for VolumeFlowPerRatedTotalCapacity=[2.684E-005--6.713E-005]
   **   ~~~   ** Possible causes include inconsistent air flow rates in system components,
   **   ~~~   ** or variable air volume [VAV] system using incorrect coil type.
   ** Warning ** CalcDoe2DXCoil: Coil:Cooling:DX:SingleSpeed="STORAGE_4_2_2_Z63_COOLINGCOILDX" - Air volume flow rate per watt of rated total cooling capacity is out of range at 1.038E-005 m3/s/W.
   **   ~~~   **  Environment=YEAR ROUND RUN PERIOD, at Simulation time=04/15 12:08 - 12:15
   **   ~~~   ** Expected range for VolumeFlowPerRatedTotalCapacity=[2.684E-005--6.713E-005]
   **   ~~~   ** Possible causes include inconsistent air flow rates in system components,
   **   ~~~   ** or variable air volume [VAV] system using incorrect coil type.
   ** Warning ** CalcDoe2DXCoil: Coil:Cooling:DX:SingleSpeed="STORAGE_6_1_2_Z84_COOLINGCOILDX" - Air volume flow rate per watt of rated total cooling capacity is out of range at 1.037E-005 m3/s/W.
   **   ~~~   **  Environment=YEAR ROUND RUN PERIOD, at Simulation time=04/15 12:08 - 12:15
   **   ~~~   ** Expected range for VolumeFlowPerRatedTotalCapacity=[2.684E-005--6.713E-005]
   **   ~~~   ** Possible causes include inconsistent air flow rates in system components,
   **   ~~~   ** or variable air volume [VAV] system using incorrect coil type.
   ** Warning ** CalcDoe2DXCoil: Coil:Cooling:DX:SingleSpeed="STORAGE_7_2_2_Z98_COOLINGCOILDX" - Air volume flow rate per watt of rated total cooling capacity is out of range at 1.037E-005 m3/s/W.
   **   ~~~   **  Environment=YEAR ROUND RUN PERIOD, at Simulation time=04/15 12:08 - 12:15
   **   ~~~   ** Expected range for VolumeFlowPerRatedTotalCapacity=[2.684E-005--6.713E-005]
   **   ~~~   ** 