Program Version,EnergyPlus, Version 24.2.0-94a887817b, YMD=2025.11.03 09:22,
Var Type (reported time step),Var Report Type,Variable Name [Units]
Zone,Meter,Electricity:Facility [J]
Zone,Meter,Electricity:Building [J]
Zone,Meter,Electricity:Zone:LOBBY_0 [J]
Zone,Meter,Electricity:SpaceType:GENERAL [J]
Zone,Meter,InteriorLights:Electricity [J]
Zone,Meter,InteriorLights:Electricity:Zone:LOBBY_0 [J]
Zone,Meter,InteriorLights:Electricity:SpaceType:GENERAL [J]
Zone,Meter,General:InteriorLights:Electricity [J]
Zone,Meter,General:InteriorLights:Electricity:Zone:LOBBY_0 [J]
Zone,Meter,General:InteriorLights:Electricity:SpaceType:GENERAL [J]
Zone,Meter,Electricity:Zone:CONFERENCE_0 [J]
Zone,Meter,InteriorLights:Electricity:Zone:CONFERENCE_0 [J]
Zone,Meter,General:InteriorLights:Electricity:Zone:CONFERENCE_0 [J]
Zone,Meter,Electricity:Zone:BREAK_ROOM_0 [J]
Zone,Meter,InteriorLights:Electricity:Zone:BREAK_ROOM_0 [J]
Zone,Meter,General:InteriorLights:Electricity:Zone:BREAK_ROOM_0 [J]
Zone,Meter,Electricity:Zone:MECHANICAL_0 [J]
Zone,Meter,InteriorLights:Electricity:Zone:MECHANICAL_0 [J]
Zone,Meter,General:InteriorLights:Electricity:Zone:MECHANICAL_0 [J]
Zone,Meter,Electricity:Zone:OFFICE_OPEN_0_0_0 [J]
Zone,Meter,InteriorLights:Electricity:Zone:OFFICE_OPEN_0_0_0 [J]
Zone,Meter,General:InteriorLights:Electricity:Zone:OFFICE_OPEN_0_0_0 [J]
Zone,Meter,Electricity:Zone:OFFICE_PRIVATE_0_0_1 [J]
Zone,Meter,InteriorLights:Electricity:Zone:OFFICE_PRIVATE_0_0_1 [J]
Zone,Meter,General:InteriorLights:Electricity:Zone:OFFICE_PRIVATE_0_0_1 [J]
Zone,Meter,Electricity:Zone:STORAGE_0_0_2 [J]
Zone,Meter,InteriorLights:Electricity:Zone:STORAGE_0_0_2 [J]
Zone,Meter,General:InteriorLights:Electricity:Zone:STORAGE_0_0_2 [J]
Zone,Meter,Electricity:Zone:OFFICE_OPEN_0_1_0 [J]
Zone,Meter,InteriorLights:Electricity:Zone:OFFICE_OPEN_0_1_0 [J]
Zone,Meter,General:InteriorLights:Electricity:Zone:OFFICE_OPEN_0_1_0 [J]
Zone,Meter,Electricity:Zone:OFFICE_PRIVATE_0_1_1 [J]
Zone,Meter,InteriorLights:Electricity:Zone:OFFICE_PRIVATE_0_1_1 [J]
Zone,Meter,General:InteriorLights:Electricity:Zone:OFFICE_PRIVATE_0_1_1 [J]
Zone,Meter,Electricity:Zone:STORAGE_0_1_2 [J]
Zone,Meter,InteriorLights:Electricity:Zone:STORAGE_0_1_2 [J]
Zone,Meter,General:InteriorLights:Electricity:Zone:STORAGE_0_1_2 [J]
Zone,Meter,Electricity:Zone:OFFICE_OPEN_0_2_0 [J]
Zone,Meter,InteriorLights:Electricity:Zone:OFFICE_OPEN_0_2_0 [J]
Zone,Meter,General:InteriorLights:Electricity:Zone:OFFICE_OPEN_0_2_0 [J]
Zone,Meter,Electricity:Zone:OFFICE_PRIVATE_0_2_1 [J]
Zone,Meter,InteriorLights:Electricity:Zone:OFFICE_PRIVATE_0_2_1 [J]
Zone,Meter,General:InteriorLights:Electricity:Zone:OFFICE_PRIVATE_0_2_1 [J]
Zone,Meter,Electricity:Zone:STORAGE_0_2_2 [J]
Zone,Meter,InteriorLights:Electricity:Zone:STORAGE_0_2_2 [J]
Zone,Meter,General:InteriorLights:Electricity:Zone:STORAGE_0_2_2 [J]
Zone,Meter,Electricity:Zone:CONFERENCE_1 [J]
Zone,Meter,InteriorLights:Electricity:Zone:CONFERENCE_1 [J]
Zone,Meter,General:InteriorLights:Electricity:Zone:CONFERENCE_1 [J]
Zone,Meter,Electricity:Zone:BREAK_ROOM_1 [J]
Zone,Meter,InteriorLights:Electricity:Zone:BREAK_ROOM_1 [J]
Zone,Meter,General:InteriorLights:Electricity:Zone:BREAK_ROOM_1 [J]
Zone,Meter,Electricity:Zone:MECHANICAL_1 [J]
Zone,Meter,InteriorLights:Electricity:Zone:MECHANICAL_1 [J]
Zone,Meter,General:InteriorLights:Electricity:Zone:MECHANICAL_1 [J]
Zone,Meter,Electricity:Zone:OFFICE_OPEN_1_0_0 [J]
Zone,Meter,InteriorLights:Electricity:Zone:OFFICE_OPEN_1_0_0 [J]
Zone,Meter,General:InteriorLights:Electricity:Zone:OFFICE_OPEN_1_0_0 [J]
Zone,Meter,Electricity:Zone:OFFICE_PRIVATE_1_0_1 [J]
Zone,Meter,InteriorLights:Electricity:Zone:OFFICE_PRIVATE_1_0_1 [J]
Zone,Meter,General:InteriorLights:Electricity:Zone:OFFICE_PRIVATE_1_0_1 [J]
Zone,Meter,Electricity:Zone:STORAGE_1_0_2 [J]
Zone,Meter,InteriorLights:Electricity:Zone:STORAGE_1_0_2 [J]
Zone,Meter,General:InteriorLights:Electricity:Zone:STORAGE_1_0_2 [J]
Zone,Meter,Electricity:Zone:OFFICE_OPEN_1_1_0 [J]
Zone,Meter,InteriorLights:Electricity:Zone:OFFICE_OPEN_1_1_0 [J]
Zone,Meter,General:InteriorLights:Electricity:Zone:OFFICE_OPEN_1_1_0 [J]
Zone,Meter,Electricity:Zone:OFFICE_PRIVATE_1_1_1 [J]
Zone,Meter,InteriorLights:Electricity:Zone:OFFICE_PRIVATE_1_1_1 [J]
Zone,Meter,General:InteriorLights:Electricity:Zone:OFFICE_PRIVATE_1_1_1 [J]
Zone,Meter,Electricity:Zone:STORAGE_1_1_2 [J]
Zone,Meter,InteriorLights:Electricity:Zone:STORAGE_1_1_2 [J]
Zone,Meter,General:InteriorLights:Electricity:Zone:STORAGE_1_1_2 [J]
Zone,Meter,Electricity:Zone:OFFICE_OPEN_1_2_0 [J]
Zone,Meter,InteriorLights:Electricity:Zone:OFFICE_OPEN_1_2_0 [J]
Zone,Meter,General:InteriorLights:Electricity:Zone:OFFICE_OPEN_1_2_0 [J]
Zone,Meter,Electricity:Zone:OFFICE_PRIVATE_1_2_1 [J]
Zone,Meter,InteriorLights:Electricity:Zone:OFFICE_PRIVATE_1_2_1 [J]
Zone,Meter,General:InteriorLights:Electricity:Zone:OFFICE_PRIVATE_1_2_1 [J]
Zone,Meter,Electricity:Zone:STORAGE_1_2_2 [J]
Zone,Meter,InteriorLights:Electricity:Zone:STORAGE_1_2_2 [J]
Zone,Meter,General:InteriorLights:Electricity:Zone:STORAGE_1_2_2 [J]
Zone,Meter,Electricity:Zone:LOBBY_2 [J]
Zone,Meter,InteriorLights:Electricity:Zone:LOBBY_2 [J]
Zone,Meter,General:InteriorLights:Electricity:Zone:LOBBY_2 [J]
Zone,Meter,Electricity:Zone:BREAK_ROOM_2 [J]
Zone,Meter,InteriorLights:Electricity:Zone:BREAK_ROOM_2 [J]
Zone,Meter,General:InteriorLights:Electricity:Zone:BREAK_ROOM_2 [J]
Zone,Meter,Electricity:Zone:MECHANICAL_2 [J]
Zone,Meter,InteriorLights:Electricity:Zone:MECHANICAL_2 [J]
Zone,Meter,General:InteriorLights:Electricity:Zone:MECHANICAL_2 [J]
Zone,Meter,Electricity:Zone:OFFICE_OPEN_2_0_0 [J]
Zone,Meter,InteriorLights:Electricity:Zone:OFFICE_OPEN_2_0_0 [J]
Zone,Meter,General:InteriorLights:Electricity:Zone:OFFICE_OPEN_2_0_0 [J]
Zone,Meter,Electricity:Zone:OFFICE_PRIVATE_2_0_1 [J]
Zone,Meter,InteriorLights:Electricity:Zone:OFFICE_PRIVATE_2_0_1 [J]
Zone,Meter,General:InteriorLights:Electricity:Zone:OFFICE_PRIVATE_2_0_1 [J]
Zone,Meter,Electricity:Zone:STORAGE_2_0_2 [J]
Zone,Meter,InteriorLights:Electricity:Zone:STORAGE_2_0_2 [J]
Zone,Meter,General:InteriorLights:Electricity:Zone:STORAGE_2_0_2 [J]
Zone,Meter,Electricity:Zone:OFFICE_OPEN_2_1_0 [J]
Zone,Meter,InteriorLights:Electricity:Zone:OFFICE_OPEN_2_1_0 [J]
Zone,Meter,General:InteriorLights:Electricity:Zone:OFFICE_OPEN_2_1_0 [J]
Zone,Meter,Electricity:Zone:OFFICE_PRIVATE_2_1_1 [J]
Zone,Meter,InteriorLights:Electricity:Zone:OFFICE_PRIVATE_2_1_1 [J]
Zone,Meter,General:InteriorLights:Electricity:Zone:OFFICE_PRIVATE_2_1_1 [J]
Zone,Meter,Electricity:Zone:STORAGE_2_1_2 [J]
Zone,Meter,InteriorLights:Electricity:Zone:STORAGE_2_1_2 [J]
Zone,Meter,General:InteriorLights:Electricity:Zone:STORAGE_2_1_2 [J]
Zone,Meter,Electricity:Zone:OFFICE_OPEN_2_2_0 [J]
Zone,Meter,InteriorLights:Electricity:Zone:OFFICE_OPEN_2_2_0 [J]
Zone,Meter,General:InteriorLights:Electricity:Zone:OFFICE_OPEN_2_2_0 [J]
Zone,Meter,Electricity:Zone:OFFICE_PRIVATE_2_2_1 [J]
Zone,Meter,InteriorLights:Electricity:Zone:OFFICE_PRIVATE_2_2_1 [J]
Zone,Meter,General:InteriorLights:Electricity:Zone:OFFICE_PRIVATE_2_2_1 [J]
Zone,Meter,Electricity:Zone:STORAGE_2_2_2 [J]
Zone,Meter,InteriorLights:Electricity:Zone:STORAGE_2_2_2 [J]
Zone,Meter,General:InteriorLights:Electricity:Zone:STORAGE_2_2_2 [J]
Zone,Meter,Electricity:Zone:LOBBY_3 [J]
Zone,Meter,InteriorLights:Electricity:Zone:LOBBY_3 [J]
Zone,Meter,General:InteriorLights:Electricity:Zone:LOBBY_3 [J]
Zone,Meter,Electricity:Zone:CONFERENCE_3 [J]
Zone,Meter,InteriorLights:Electricity:Zone:CONFERENCE_3 [J]
Zone,Meter,General:InteriorLights:Electricity:Zone:CONFERENCE_3 [J]
Zone,Meter,Electricity:Zone:BREAK_ROOM_3 [J]
Zone,Meter,InteriorLights:Electricity:Zone:BREAK_ROOM_3 [J]
Zone,Meter,General:InteriorLights:Electricity:Zone:BREAK_ROOM_3 [J]
Zone,Meter,Electricity:Zone:MECHANICAL_3 [J]
Zone,Meter,InteriorLights:Electricity:Zone:MECHANICAL_3 [J]
Zone,Meter,General:InteriorLights:Electricity:Zone:MECHANICAL_3 [J]
Zone,Meter,Electricity:Zone:OFFICE_OPEN_3_0_0 [J]
Zone,Meter,InteriorLights:Electricity:Zone:OFFICE_OPEN_3_0_0 [J]
Zone,Meter,General:InteriorLights:Electricity:Zone:OFFICE_OPEN_3_0_0 [J]
Zone,Meter,Electricity:Zone:OFFICE_PRIVATE_3_0_1 [J]
Zone,Meter,InteriorLights:Electricity:Zone:OFFICE_PRIVATE_3_0_1 [J]
Zone,Meter,General:InteriorLights:Electricity:Zone:OFFICE_PRIVATE_3_0_1 [J]
Zone,Meter,Electricity:Zone:STORAGE_3_0_2 [J]
Zone,Meter,InteriorLights:Electricity:Zone:STORAGE_3_0_2 [J]
Zone,Meter,General:InteriorLights:Electricity:Zone:STORAGE_3_0_2 [J]
Zone,Meter,Electricity:Zone:OFFICE_OPEN_3_1_0 [J]
Zone,Meter,InteriorLights:Electricity:Zone:OFFICE_OPEN_3_1_0 [J]
Zone,Meter,General:InteriorLights:Electricity:Zone:OFFICE_OPEN_3_1_0 [J]
Zone,Meter,Electricity:Zone:OFFICE_PRIVATE_3_1_1 [J]
Zone,Meter,InteriorLights:Electricity:Zone:OFFICE_PRIVATE_3_1_1 [J]
Zone,Meter,General:InteriorLights:Electricity:Zone:OFFICE_PRIVATE_3_1_1 [J]
Zone,Meter,Electricity:Zone:STORAGE_3_1_2 [J]
Zone,Meter,InteriorLights:Electricity:Zone:STORAGE_3_1_2 [J]
Zone,Meter,General:InteriorLights:Electricity:Zone:STORAGE_3_1_2 [J]
Zone,Meter,Electricity:Zone:OFFICE_OPEN_3_2_0 [J]
Zone,Meter,InteriorLights:Electricity:Zone:OFFICE_OPEN_3_2_0 [J]
Zone,Meter,General:InteriorLights:Electricity:Zone:OFFICE_OPEN_3_2_0 [J]
Zone,Meter,Electricity:Zone:OFFICE_PRIVATE_3_2_1 [J]
Zone,Meter,InteriorLights:Electricity:Zone:OFFICE_PRIVATE_3_2_1 [J]
Zone,Meter,General:InteriorLights:Electricity:Zone:OFFICE_PRIVATE_3_2_1 [J]
Zone,Meter,Electricity:Zone:STORAGE_3_2_2 [J]
Zone,Meter,InteriorLights:Electricity:Zone:STORAGE_3_2_2 [J]
Zone,Meter,General:InteriorLights:Electricity:Zone:STORAGE_3_2_2 [J]
Zone,Meter,Electricity:Zone:LOBBY_4 [J]
Zone,Meter,InteriorLights:Electricity:Zone:LOBBY_4 [J]
Zone,Meter,General:InteriorLights:Electricity:Zone:LOBBY_4 [J]
Zone,Meter,Electricity:Zone:CONFERENCE_4 [J]
Zone,Meter,InteriorLights:Electricity:Zone:CONFERENCE_4 [J]
Zone,Meter,General:InteriorLights:Electricity:Zone:CONFERENCE_4 [J]
Zone,Meter,Electricity:Zone:BREAK_ROOM_4 [J]
Zone,Meter,InteriorLights:Electricity:Zone:BREAK_ROOM_4 [J]
Zone,Meter,General:InteriorLights:Electricity:Zone:BREAK_ROOM_4 [J]
Zone,Meter,Electricity:Zone:MECHANICAL_4 [J]
Zone,Meter,InteriorLights:Electricity:Zone:MECHANICAL_4 [J]
Zone,Meter,General:InteriorLights:Electricity:Zone:MECHANICAL_4 [J]
Zone,Meter,Electricity:Zone:OFFICE_OPEN_4_0_0 [J]
Zone,Meter,InteriorLights:Electricity:Zone:OFFICE_OPEN_4_0_0 [J]
Zone,Meter,General:InteriorLights:Electricity:Zone:OFFICE_OPEN_4_0_0 [J]
Zone,Meter,Electricity:Zone:OFFICE_PRIVATE_4_0_1 [J]
Zone,Meter,InteriorLights:Electricity:Zone:OFFICE_PRIVATE_4_0_1 [J]
Zone,Meter,General:InteriorLights:Electricity:Zone:OFFICE_PRIVATE_4_0_1 [J]
Zone,Meter,Electricity:Zone:STORAGE_4_0_2 [J]
Zone,Meter,InteriorLights:Electricity:Zone:STORAGE_4_0_2 [J]
Zone,Meter,General:InteriorLights:Electricity:Zone:STORAGE_4_0_2 [J]
Zone,Meter,Electricity:Zone:OFFICE_OPEN_4_1_0 [J]
Zone,Meter,InteriorLights:Electricity:Zone:OFFICE_OPEN_4_1_0 [J]
Zone,Meter,General:InteriorLights:Electricity:Zone:OFFICE_OPEN_4_1_0 [J]
Zone,Meter,Electricity:Zone:OFFICE_PRIVATE_4_1_1 [J]
Zone,Meter,InteriorLights:Electricity:Zone:OFFICE_PRIVATE_4_1_1 [J]
Zone,Meter,General:InteriorLights:Electricity:Zone:OFFICE_PRIVATE_4_1_1 [J]
Zone,Meter,Electricity:Zone:STORAGE_4_1_2 [J]
Zone,Meter,InteriorLights:Electricity:Zone:STORAGE_4_1_2 [J]
Zone,Meter,General:InteriorLights:Electricity:Zone:STORAGE_4_1_2 [J]
Zone,Meter,Electricity:Zone:OFFICE_OPEN_4_2_0 [J]
Zone,Meter,InteriorLights:Electricity:Zone:OFFICE_OPEN_4_2_0 [J]
Zone,Meter,General:InteriorLights:Electricity:Zone:OFFICE_OPEN_4_2_0 [J]
Zone,Meter,Electricity:Zone:OFFICE_PRIVATE_4_2_1 [J]
Zone,Meter,InteriorLights:Electricity:Zone:OFFICE_PRIVATE_4_2_1 [J]
Zone,Meter,General:InteriorLights:Electricity:Zone:OFFICE_PRIVATE_4_2_1 [J]
Zone,Meter,Electricity:Zone:STORAGE_4_2_2 [J]
Zone,Meter,InteriorLights:Electricity:Zone:STORAGE_4_2_2 [J]
Zone,Meter,General:InteriorLights:Electricity:Zone:STORAGE_4_2_2 [J]
Zone,Meter,Electricity:Zone:LOBBY_5 [J]
Zone,Meter,InteriorLights:Electricity:Zone:LOBBY_5 [J]
Zone,Meter,General:InteriorLights:Electricity:Zone:LOBBY_5 [J]
Zone,Meter,Electricity:Zone:BREAK_ROOM_5 [J]
Zone,Meter,InteriorLights:Electricity:Zone:BREAK_ROOM_5 [J]
Zone,Meter,General:InteriorLights:Electricity:Zone:BREAK_ROOM_5 [J]
Zone,Meter,Electricity:Zone:MECHANICAL_5 [J]
Zone,Meter,InteriorLights:Electricity:Zone:MECHANICAL_5 [J]
Zone,Meter,General:InteriorLights:Electricity:Zone:MECHANICAL_5 [J]
Zone,Meter,Electricity:Zone:OFFICE_OPEN_5_0_0 [J]
Zone,Meter,InteriorLights:Electricity:Zone:OFFICE_OPEN_5_0_0 [J]
Zone,Meter,General:InteriorLights:Electricity:Zone:OFFICE_OPEN_5_0_0 [J]
Zone,Meter,Electricity:Zone:OFFICE_PRIVATE_5_0_1 [J]
Zone,Meter,InteriorLights:Electricity:Zone:OFFICE_PRIVATE_5_0_1 [J]
Zone,Meter,General:InteriorLights:Electricity:Zone:OFFICE_PRIVATE_5_0_1 [J]
Zone,Meter,Electricity:Zone:STORAGE_5_0_2 [J]
Zone,Meter,InteriorLights:Electricity:Zone:STORAGE_5_0_2 [J]
Zone,Meter,General:InteriorLights:Electricity:Zone:STORAGE_5_0_2 [J]
Zone,Meter,Electricity:Zone:OFFICE_OPEN_5_1_0 [J]
Zone,Meter,InteriorLights:Electricity:Zone:OFFICE_OPEN_5_1_0 [J]
Zone,Meter,General:InteriorLights:Electricity:Zone:OFFICE_OPEN_5_1_0 [J]
Zone,Meter,Electricity:Zone:OFFICE_PRIVATE_5_1_1 [J]
Zone,Meter,InteriorLights:Electricity:Zone:OFFICE_PRIVATE_5_1_1 [J]
Zone,Meter,General:InteriorLights:Electricity:Zone:OFFICE_PRIVATE_5_1_1 [J]
Zone,Meter,Electricity:Zone:STORAGE_5_1_2 [J]
Zone,Meter,InteriorLights:Electricity:Zone:STORAGE_5_1_2 [J]
Zone,Meter,General:InteriorLights:Electricity:Zone:STORAGE_5_1_2 [J]
Zone,Meter,Electricity:Zone:OFFICE_OPEN_5_2_0 [J]
Zone,Meter,InteriorLights:Electricity:Zone:OFFICE_OPEN_5_2_0 [J]
Zone,Meter,General:InteriorLights:Electricity:Zone:OFFICE_OPEN_5_2_0 [J]
Zone,Meter,Electricity:Zone:OFFICE_PRIVATE_5_2_1 [J]
Zone,Meter,InteriorLights:Electricity:Zone:OFFICE_PRIVATE_5_2_1 [J]
Zone,Meter,General:InteriorLights:Electricity:Zone:OFFICE_PRIVATE_5_2_1 [J]
Zone,Meter,Electricity:Zone:STORAGE_5_2_2 [J]
Zone,Meter,InteriorLights:Electricity:Zone:STORAGE_5_2_2 [J]
Zone,Meter,General:InteriorLights:Electricity:Zone:STORAGE_5_2_2 [J]
Zone,Meter,Electricity:Zone:LOBBY_6 [J]
Zone,Meter,InteriorLights:Electricity:Zone:LOBBY_6 [J]
Zone,Meter,General:InteriorLights:Electricity:Zone:LOBBY_6 [J]
Zone,Meter,Electricity:Zone:BREAK_ROOM_6 [J]
Zone,Meter,InteriorLights:Electricity:Zone:BREAK_ROOM_6 [J]
Zone,Meter,General:InteriorLights:Electricity:Zone:BREAK_ROOM_6 [J]
Zone,Meter,Electricity:Zone:MECHANICAL_6 [J]
Zone,Meter,InteriorLights:Electricity:Zone:MECHANICAL_6 [J]
Zone,Meter,General:InteriorLights:Electricity:Zone:MECHANICAL_6 [J]
Zone,Meter,Electricity:Zone:OFFICE_OPEN_6_0_0 [J]
Zone,Meter,InteriorLights:Electricity:Zone:OFFICE_OPEN_6_0_0 [J]
Zone,Meter,General:InteriorLights:Electricity:Zone:OFFICE_OPEN_6_0_0 [J]
Zone,Meter,Electricity:Zone:OFFICE_PRIVATE_6_0_1 [J]
Zone,Meter,InteriorLights:Electricity:Zone:OFFICE_PRIVATE_6_0_1 [J]
Zone,Meter,General:InteriorLights:Electricity:Zone:OFFICE_PRIVATE_6_0_1 [J]
Zone,Meter,Electricity:Zone:STORAGE_6_0_2 [J]
Zone,Meter,InteriorLights:Electricity:Zone:STORAGE_6_0_2 [J]
Zone,Meter,General:InteriorLights:Electricity:Zone:STORAGE_6_0_2 [J]
Zone,Meter,Electricity:Zone:OFFICE_OPEN_6_1_0 [J]
Zone,Meter,InteriorLights:Electricity:Zone:OFFICE_OPEN_6_1_0 [J]
Zone,Meter,General:InteriorLights:Electricity:Zone:OFFICE_OPEN_6_1_0 [J]
Zone,Meter,Electricity:Zone:OFFICE_PRIVATE_6_1_1 [J]
Zone,Meter,InteriorLights:Electricity:Zone:OFFICE_PRIVATE_6_1_1 [J]
Zone,Meter,General:InteriorLights:Electricity:Zone:OFFICE_PRIVATE_6_1_1 [J]
Zone,Meter,Electricity:Zone:STORAGE_6_1_2 [J]
Zone,Meter,InteriorLights:Electricity:Zone:STORAGE_6_1_2 [J]
Zone,Meter,General:InteriorLights:Electricity:Zone:STORAGE_6_1_2 [J]
Zone,Meter,Electricity:Zone:OFFICE_OPEN_6_2_0 [J]
Zone,Meter,InteriorLights:Electricity:Zone:OFFICE_OPEN_6_2_0 [J]
Zone,Meter,General:InteriorLights:Electricity:Zone:OFFICE_OPEN_6_2_0 [J]
Zone,Meter,Electricity:Zone:OFFICE_PRIVATE_6_2_1 [J]
Zone,Meter,InteriorLights:Electricity:Zone:OFFICE_PRIVATE_6_2_1 [J]
Zone,Meter,General:InteriorLights:Electricity:Zone:OFFICE_PRIVATE_6_2_1 [J]
Zone,Meter,Electricity:Zone:STORAGE_6_2_2 [J]
Zone,Meter,InteriorLights:Electricity:Zone:STORAGE_6_2_2 [J]
Zone,Meter,General:InteriorLights:Electricity:Zone:STORAGE_6_2_2 [J]
Zone,Meter,Electricity:Zone:LOBBY_7 [J]
Zone,Meter,InteriorLights:Electricity:Zone:LOBBY_7 [J]
Zone,Meter,General:InteriorLights:Electricity:Zone:LOBBY_7 [J]
Zone,Meter,Electricity:Zone:CONFERENCE_7 [J]
Zone,Meter,InteriorLights:Electricity:Zone:CONFERENCE_7 [J]
Zone,Meter,General:InteriorLights:Electricity:Zone:CONFERENCE_7 [J]
Zone,Meter,Electricity:Zone:OFFICE_OPEN_7_0_0 [J]
Zone,Meter,InteriorLights:Electricity:Zone:OFFICE_OPEN_7_0_0 [J]
Zone,Meter,General:InteriorLights:Electricity:Zone:OFFICE_OPEN_7_0_0 [J]
Zone,Meter,Electricity:Zone:OFFICE_PRIVATE_7_0_1 [J]
Zone,Meter,InteriorLights:Electricity:Zone:OFFICE_PRIVATE_7_0_1 [J]
Zone,Meter,General:InteriorLights:Electricity:Zone:OFFICE_PRIVATE_7_0_1 [J]
Zone,Meter,Electricity:Zone:STORAGE_7_0_2 [J]
Zone,Meter,InteriorLights:Electricity:Zone:STORAGE_7_0_2 [J]
Zone,Meter,General:InteriorLights:Electricity:Zone:STORAGE_7_0_2 [J]
Zone,Meter,Electricity:Zone:OFFICE_OPEN_7_1_0 [J]
Zone,Meter,InteriorLights:Electricity:Zone:OFFICE_OPEN_7_1_0 [J]
Zone,Meter,General:InteriorLights:Electricity:Zone:OFFICE_OPEN_7_1_0 [J]
Zone,Meter,Electricity:Zone:OFFICE_PRIVATE_7_1_1 [J]
Zone,Meter,InteriorLights:Electricity:Zone:OFFICE_PRIVATE_7_1_1 [J]
Zone,Meter,General:InteriorLights:Electricity:Zone:OFFICE_PRIVATE_7_1_1 [J]
Zone,Meter,Electricity:Zone:STORAGE_7_1_2 [J]
Zone,Meter,InteriorLights:Electricity:Zone:STORAGE_7_1_2 [J]
Zone,Meter,General:InteriorLights:Electricity:Zone:STORAGE_7_1_2 [J]
Zone,Meter,Electricity:Zone:OFFICE_OPEN_7_2_0 [J]
Zone,Meter,InteriorLights:Electricity:Zone:OFFICE_OPEN_7_2_0 [J]
Zone,Meter,General:InteriorLights:Electricity:Zone:OFFICE_OPEN_7_2_0 [J]
Zone,Meter,Electricity:Zone:OFFICE_PRIVATE_7_2_1 [J]
Zone,Meter,InteriorLights:Electricity:Zone:OFFICE_PRIVATE_7_2_1 [J]
Zone,Meter,General:InteriorLights:Electricity:Zone:OFFICE_PRIVATE_7_2_1 [J]
Zone,Meter,Electricity:Zone:STORAGE_7_2_2 [J]
Zone,Meter,InteriorLights:Electricity:Zone:STORAGE_7_2_2 [J]
Zone,Meter,General:InteriorLights:Electricity:Zone:STORAGE_7_2_2 [J]
Zone,Meter,Electricity:Zone:LOBBY_8 [J]
Zone,Meter,InteriorLights:Electricity:Zone:LOBBY_8 [J]
Zone,Meter,General:InteriorLights:Electricity:Zone:LOBBY_8 [J]
Zone,Meter,Electricity:Zone:BREAK_ROOM_8 [J]
Zone,Meter,InteriorLights:Electricity:Zone:BREAK_ROOM_8 [J]
Zone,Meter,General:InteriorLights:Electricity:Zone:BREAK_ROOM_8 [J]
Zone,Meter,Electricity:Zone:MECHANICAL_8 [J]
Zone,Meter,InteriorLights:Electricity:Zone:MECHANICAL_8 [J]
Zone,Meter,General:InteriorLights:Electricity:Zone:MECHANICAL_8 [J]
Zone,Meter,Electricity:Zone:OFFICE_OPEN_8_0_0 [J]
Zone,Meter,InteriorLights:Electricity:Zone:OFFICE_OPEN_8_0_0 [J]
Zone,Meter,General:InteriorLights:Electricity:Zone:OFFICE_OPEN_8_0_0 [J]
Zone,Meter,Electricity:Zone:OFFICE_PRIVATE_8_0_1 [J]
Zone,Meter,InteriorLights:Electricity:Zone:OFFICE_PRIVATE_8_0_1 [J]
Zone,Meter,General:InteriorLights:Electricity:Zone:OFFICE_PRIVATE_8_0_1 [J]
Zone,Meter,Electricity:Zone:STORAGE_8_0_2 [J]
Zone,Meter,InteriorLights:Electricity:Zone:STORAGE_8_0_2 [J]
Zone,Meter,General:InteriorLights:Electricity:Zone:STORAGE_8_0_2 [J]
Zone,Meter,Electricity:Zone:OFFICE_OPEN_8_1_0 [J]
Zone,Meter,InteriorLights:Electricity:Zone:OFFICE_OPEN_8_1_0 [J]
Zone,Meter,General:InteriorLights:Electricity:Zone:OFFICE_OPEN_8_1_0 [J]
Zone,Meter,Electricity:Zone:OFFICE_PRIVATE_8_1_1 [J]
Zone,Meter,InteriorLights:Electricity:Zone:OFFICE_PRIVATE_8_1_1 [J]
Zone,Meter,General:InteriorLights:Electricity:Zone:OFFICE_PRIVATE_8_1_1 [J]
Zone,Meter,Electricity:Zone:STORAGE_8_1_2 [J]
Zone,Meter,InteriorLights:Electricity:Zone:STORAGE_8_1_2 [J]
Zone,Meter,General:InteriorLights:Electricity:Zone:STORAGE_8_1_2 [J]
Zone,Meter,Electricity:Zone:OFFICE_OPEN_8_2_0 [J]
Zone,Meter,InteriorLights:Electricity:Zone:OFFICE_OPEN_8_2_0 [J]
Zone,Meter,General:InteriorLights:Electricity:Zone:OFFICE_OPEN_8_2_0 [J]
Zone,Meter,Electricity:Zone:OFFICE_PRIVATE_8_2_1 [J]
Zone,Meter,InteriorLights:Electricity:Zone:OFFICE_PRIVATE_8_2_1 [J]
Zone,Meter,General:InteriorLights:Electricity:Zone:OFFICE_PRIVATE_8_2_1 [J]
Zone,Meter,Electricity:Zone:STORAGE_8_2_2 [J]
Zone,Meter,InteriorLights:Electricity:Zone:STORAGE_8_2_2 [J]
Zone,Meter,General:InteriorLights:Electricity:Zone:STORAGE_8_2_2 [J]
Zone,Meter,Electricity:Zone:CONFERENCE_9 [J]
Zone,Meter,InteriorLights:Electricity:Zone:CONFERENCE_9 [J]
Zone,Meter,General:InteriorLights:Electricity:Zone:CONFERENCE_9 [J]
Zone,Meter,Electricity:Zone:BREAK_ROOM_9 [J]
Zone,Meter,InteriorLights:Electricity:Zone:BREAK_ROOM_9 [J]
Zone,Meter,General:InteriorLights:Electricity:Zone:BREAK_ROOM_9 [J]
Zone,Meter,Electricity:Zone:MECHANICAL_9 [J]
Zone,Meter,InteriorLights:Electricity:Zone:MECHANICAL_9 [J]
Zone,Meter,General:InteriorLights:Electricity:Zone:MECHANICAL_9 [J]
Zone,Meter,Electricity:Zone:OFFICE_OPEN_9_0_0 [J]
Zone,Meter,InteriorLights:Electricity:Zone:OFFICE_OPEN_9_0_0 [J]
Zone,Meter,General:InteriorLights:Electricity:Zone:OFFICE_OPEN_9_0_0 [J]
Zone,Meter,Electricity:Zone:OFFICE_PRIVATE_9_0_1 [J]
Zone,Meter,InteriorLights:Electricity:Zone:OFFICE_PRIVATE_9_0_1 [J]
Zone,Meter,General:InteriorLights:Electricity:Zone:OFFICE_PRIVATE_9_0_1 [J]
Zone,Meter,Electricity:Zone:STORAGE_9_0_2 [J]
Zone,Meter,InteriorLights:Electricity:Zone:STORAGE_9_0_2 [J]
Zone,Meter,General:InteriorLights:Electricity:Zone:STORAGE_9_0_2 [J]
Zone,Meter,Electricity:Zone:OFFICE_OPEN_9_1_0 [J]
Zone,Meter,InteriorLights:Electricity:Zone:OFFICE_OPEN_9_1_0 [J]
Zone,Meter,General:InteriorLights:Electricity:Zone:OFFICE_OPEN_9_1_0 [J]
Zone,Meter,Electricity:Zone:OFFICE_PRIVATE_9_1_1 [J]
Zone,Meter,InteriorLights:Electricity:Zone:OFFICE_PRIVATE_9_1_1 [J]
Zone,Meter,General:InteriorLights:Electricity:Zone:OFFICE_PRIVATE_9_1_1 [J]
Zone,Meter,Electricity:Zone:STORAGE_9_1_2 [J]
Zone,Meter,InteriorLights:Electricity:Zone:STORAGE_9_1_2 [J]
Zone,Meter,General:InteriorLights:Electricity:Zone:STORAGE_9_1_2 [J]
Zone,Meter,Electricity:Zone:OFFICE_OPEN_9_2_0 [J]
Zone,Meter,InteriorLights:Electricity:Zone:OFFICE_OPEN_9_2_0 [J]
Zone,Meter,General:InteriorLights:Electricity:Zone:OFFICE_OPEN_9_2_0 [J]
Zone,Meter,Electricity:Zone:OFFICE_PRIVATE_9_2_1 [J]
Zone,Meter,InteriorLights:Electricity:Zone:OFFICE_PRIVATE_9_2_1 [J]
Zone,Meter,General:InteriorLights:Electricity:Zone:OFFICE_PRIVATE_9_2_1 [J]
Zone,Meter,Electricity:Zone:STORAGE_9_2_2 [J]
Zone,Meter,InteriorLights:Electricity:Zone:STORAGE_9_2_2 [J]
Zone,Meter,General:InteriorLights:Electricity:Zone:STORAGE_9_2_2 [J]
Zone,Meter,InteriorEquipment:Electricity [J]
Zone,Meter,InteriorEquipment:Electricity:Zone:LOBBY_0 [J]
Zone,Meter,InteriorEquipment:Electricity:SpaceType:GENERAL [J]
Zone,Meter,General:InteriorEquipment:Electricity [J]
Zone,Meter,General:InteriorEquipment:Electricity:Zone:LOBBY_0 [J]
Zone,Meter,General:InteriorEquipment:Electricity:SpaceType:GENERAL [J]
Zone,Meter,InteriorEquipment:Electricity:Zone:CONFERENCE_0 [J]
Zone,Meter,General:InteriorEquipment:Electricity:Zone:CONFERENCE_0 [J]
Zone,Meter,InteriorEquipment:Electricity:Zone:BREAK_ROOM_0 [J]
Zone,Meter,General:InteriorEquipment:Electricity:Zone:BREAK_ROOM_0 [J]
Zone,Meter,InteriorEquipment:Electricity:Zone:MECHANICAL_0 [J]
Zone,Meter,General:InteriorEquipment:Electricity:Zone:MECHANICAL_0 [J]
Zone,Meter,InteriorEquipment:Electricity:Zone:OFFICE_OPEN_0_0_0 [J]
Zone,Meter,General:InteriorEquipment:Electricity:Zone:OFFICE_OPEN_0_0_0 [J]
Zone,Meter,InteriorEquipment:Electricity:Zone:OFFICE_PRIVATE_0_0_1 [J]
Zone,Meter,General:InteriorEquipment:Electricity:Zone:OFFICE_PRIVATE_0_0_1 [J]
Zone,Meter,InteriorEquipment:Electricity:Zone:STORAGE_0_0_2 [J]
Zone,Meter,General:InteriorEquipment:Electricity:Zone:STORAGE_0_0_2 [J]
Zone,Meter,InteriorEquipment:Electricity:Zone:OFFICE_OPEN_0_1_0 [J]
Zone,Meter,General:InteriorEquipment:Electricity:Zone:OFFICE_OPEN_0_1_0 [J]
Zone,Meter,InteriorEquipment:Electricity:Zone:OFFICE_PRIVATE_0_1_1 [J]
Zone,Meter,General:InteriorEquipment:Electricity:Zone:OFFICE_PRIVATE_0_1_1 [J]
Zone,Meter,InteriorEquipment:Electricity:Zone:STORAGE_0_1_2 [J]
Zone,Meter,General:InteriorEquipment:Electricity:Zone:STORAGE_0_1_2 [J]
Zone,Meter,InteriorEquipment:Electricity:Zone:OFFICE_OPEN_0_2_0 [J]
Zone,Meter,General:InteriorEquipment:Electricity:Zone:OFFICE_OPEN_0_2_0 [J]
Zone,Meter,InteriorEquipment:Electricity:Zone:OFFICE_PRIVATE_0_2_1 [J]
Zone,Meter,General:InteriorEquipment:Electricity:Zone:OFFICE_PRIVATE_0_2_1 [J]
Zone,Meter,InteriorEquipment:Electricity:Zone:STORAGE_0_2_2 [J]
Zone,Meter,General:InteriorEquipment:Electricity:Zone:STORAGE_0_2_2 [J]
Zone,Meter,InteriorEquipment:Electricity:Zone:CONFERENCE_1 [J]
Zone,Meter,General:InteriorEquipment:Electricity:Zone:CONFERENCE_1 [J]
Zone,Meter,InteriorEquipment:Electricity:Zone:BREAK_ROOM_1 [J]
Zone,Meter,General:InteriorEquipment:Electricity:Zone:BREAK_ROOM_1 [J]
Zone,Meter,InteriorEquipment:Electricity:Zone:MECHANICAL_1 [J]
Zone,Meter,General:InteriorEquipment:Electricity:Zone:MECHANICAL_1 [J]
Zone,Meter,InteriorEquipment:Electricity:Zone:OFFICE_OPEN_1_0_0 [J]
Zone,Meter,General:InteriorEquipment:Electricity:Zone:OFFICE_OPEN_1_0_0 [J]
Zone,Meter,InteriorEquipment:Electricity:Zone:OFFICE_PRIVATE_1_0_1 [J]
Zone,Meter,General:InteriorEquipment:Electricity:Zone:OFFICE_PRIVATE_1_0_1 [J]
Zone,Meter,InteriorEquipment:Electricity:Zone:STORAGE_1_0_2 [J]
Zone,Meter,General:InteriorEquipment:Electricity:Zone:STORAGE_1_0_2 [J]
Zone,Meter,InteriorEquipment:Electricity:Zone:OFFICE_OPEN_1_1_0 [J]
Zone,Meter,General:InteriorEquipment:Electricity:Zone:OFFICE_OPEN_1_1_0 [J]
Zone,Meter,InteriorEquipment:Electricity:Zone:OFFICE_PRIVATE_1_1_1 [J]
Zone,Meter,General:InteriorEquipment:Electricity:Zone:OFFICE_PRIVATE_1_1_1 [J]
Zone,Meter,InteriorEquipment:Electricity:Zone:STORAGE_1_1_2 [J]
Zone,Meter,General:InteriorEquipment:Electricity:Zone:STORAGE_1_1_2 [J]
Zone,Meter,InteriorEquipment:Electricity:Zone:OFFICE_OPEN_1_2_0 [J]
Zone,Meter,General:InteriorEquipment:Electricity:Zone:OFFICE_OPEN_1_2_0 [J]
Zone,Meter,InteriorEquipment:Electricity:Zone:OFFICE_PRIVATE_1_2_1 [J]
Zone,Meter,General:InteriorEquipment:Electricity:Zone:OFFICE_PRIVATE_1_2_1 [J]
Zone,Meter,InteriorEquipment:Electricity:Zone:STORAGE_1_2_2 [J]
Zone,Meter,General:InteriorEquipment:Electricity:Zone:STORAGE_1_2_2 [J]
Zone,Meter,InteriorEquipment:Electricity:Zone:LOBBY_2 [J]
Zone,Meter,General:InteriorEquipment:Electricity:Zone:LOBBY_2 [J]
Zone,Meter,InteriorEquipment:Electricity:Zone:BREAK_ROOM_2 [J]
Zone,Meter,General:InteriorEquipment:Electricity:Zone:BREAK_ROOM_2 [J]
Zone,Meter,InteriorEquipment:Electricity:Zone:MECHANICAL_2 [J]
Zone,Meter,General:InteriorEquipment:Electricity:Zone:MECHANICAL_2 [J]
Zone,Meter,InteriorEquipment:Electricity:Zone:OFFICE_OPEN_2_0_0 [J]
Zone,Meter,General:InteriorEquipment:Electricity:Zone:OFFICE_OPEN_2_0_0 [J]
Zone,Meter,InteriorEquipment:Electricity:Zone:OFFICE_PRIVATE_2_0_1 [J]
Zone,Meter,General:InteriorEquipment:Electricity:Zone:OFFICE_PRIVATE_2_0_1 [J]
Zone,Meter,InteriorEquipment:Electricity:Zone:STORAGE_2_0_2 [J]
Zone,Meter,General:InteriorEquipment:Electricity:Zone:STORAGE_2_0_2 [J]
Zone,Meter,InteriorEquipment:Electricity:Zone:OFFICE_OPEN_2_1_0 [J]
Zone,Meter,General:InteriorEquipment:Electricity:Zone:OFFICE_OPEN_2_1_0 [J]
Zone,Meter,InteriorEquipment:Electricity:Zone:OFFICE_PRIVATE_2_1_1 [J]
Zone,Meter,General:InteriorEquipment:Electricity:Zone:OFFICE_PRIVATE_2_1_1 [J]
Zone,Meter,InteriorEquipment:Electricity:Zone:STORAGE_2_1_2 [J]
Zone,Meter,General:InteriorEquipment:Electricity:Zone:STORAGE_2_1_2 [J]
Zone,Meter,InteriorEquipment:Electricity:Zone:OFFICE_OPEN_2_2_0 [J]
Zone,Meter,General:InteriorEquipment:Electricity:Zone:OFFICE_OPEN_2_2_0 [J]
Zone,Meter,InteriorEquipment:Electricity:Zone:OFFICE_PRIVATE_2_2_1 [J]
Zone,Meter,General:InteriorEquipment:Electricity:Zone:OFFICE_PRIVATE_2_2_1 [J]
Zone,Meter,InteriorEquipment:Electricity:Zone:STORAGE_2_2_2 [J]
Zone,Meter,General:InteriorEquipment:Electricity:Zone:STORAGE_2_2_2 [J]
Zone,Meter,InteriorEquipment:Electricity:Zone:LOBBY_3 [J]
Zone,Meter,General:InteriorEquipment:Electricity:Zone:LOBBY_3 [J]
Zone,Meter,InteriorEquipment:Electricity:Zone:CONFERENCE_3 [J]
Zone,Meter,General:InteriorEquipment:Electricity:Zone:CONFERENCE_3 [J]
Zone,Meter,InteriorEquipment:Electricity:Zone:BREAK_ROOM_3 [J]
Zone,Meter,General:InteriorEquipment:Electricity:Zone:BREAK_ROOM_3 [J]
Zone,Meter,InteriorEquipment:Electricity:Zone:MECHANICAL_3 [J]
Zone,Meter,General:InteriorEquipment:Electricity:Zone:MECHANICAL_3 [J]
Zone,Meter,InteriorEquipment:Electricity:Zone:OFFICE_OPEN_3_0_0 [J]
Zone,Meter,General:InteriorEquipment:Electricity:Zone:OFFICE_OPEN_3_0_0 [J]
Zone,Meter,InteriorEquipment:Electricity:Zone:OFFICE_PRIVATE_3_0_1 [J]
Zone,Meter,General:InteriorEquipment:Electricity:Zone:OFFICE_PRIVATE_3_0_1 [J]
Zone,Meter,InteriorEquipment:Electricity:Zone:STORAGE_3_0_2 [J]
Zone,Meter,General:InteriorEquipment:Electricity:Zone:STORAGE_3_0_2 [J]
Zone,Meter,InteriorEquipment:Electricity:Zone:OFFICE_OPEN_3_1_0 [J]
Zone,Meter,General:InteriorEquipment:Electricity:Zone:OFFICE_OPEN_3_1_0 [J]
Zone,Meter,InteriorEquipment:Electricity:Zone:OFFICE_PRIVATE_3_1_1 [J]
Zone,Meter,General:InteriorEquipment:Electricity:Zone:OFFICE_PRIVATE_3_1_1 [J]
Zone,Meter,InteriorEquipment:Electricity:Zone:STORAGE_3_1_2 [J]
Zone,Meter,General:InteriorEquipment:Electricity:Zone:STORAGE_3_1_2 [J]
Zone,Meter,InteriorEquipment:Electricity:Zone:OFFICE_OPEN_3_2_0 [J]
Zone,Meter,General:InteriorEquipment:Electricity:Zone:OFFICE_OPEN_3_2_0 [J]
Zone,Meter,InteriorEquipment:Electricity:Zone:OFFICE_PRIVATE_3_2_1 [J]
Zone,Meter,General:InteriorEquipment:Electricity:Zone:OFFICE_PRIVATE_3_2_1 [J]
Zone,Meter,InteriorEquipment:Electricity:Zone:STORAGE_3_2_2 [J]
Zone,Meter,General:InteriorEquipment:Electricity:Zone:STORAGE_3_2_2 [J]
Zone,Meter,InteriorEquipment:Electricity:Zone:LOBBY_4 [J]
Zone,Meter,General:InteriorEquipment:Electricity:Zone:LOBBY_4 [J]
Zone,Meter,InteriorEquipment:Electricity:Zone:CONFERENCE_4 [J]
Zone,Meter,General:InteriorEquipment:Electricity:Zone:CONFERENCE_4 [J]
Zone,Meter,InteriorEquipment:Electricity:Zone:BREAK_ROOM_4 [J]
Zone,Meter,General:InteriorEquipment:Electricity:Zone:BREAK_ROOM_4 [J]
Zone,Meter,InteriorEquipment:Electricity:Zone:MECHANICAL_4 [J]
Zone,Meter,General:InteriorEquipment:Electricity:Zone:MECHANICAL_4 [J]
Zone,Meter,InteriorEquipment:Electricity:Zone:OFFICE_OPEN_4_0_0 [J]
Zone,Meter,General:InteriorEquipment:Electricity:Zone:OFFICE_OPEN_4_0_0 [J]
Zone,Meter,InteriorEquipment:Electricity:Zone:OFFICE_PRIVATE_4_0_1 [J]
Zone,Meter,General:InteriorEquipment:Electricity:Zone:OFFICE_PRIVATE_4_0_1 [J]
Zone,Meter,InteriorEquipment:Electricity:Zone:STORAGE_4_0_2 [J]
Zone,Meter,General:InteriorEquipment:Electricity:Zone:STORAGE_4_0_2 [J]
Zone,Meter,InteriorEquipment:Electricity:Zone:OFFICE_OPEN_4_1_0 [J]
Zone,Meter,General:InteriorEquipment:Electricity:Zone:OFFICE_OPEN_4_1_0 [J]
Zone,Meter,InteriorEquipment:Electricity:Zone:OFFICE_PRIVATE_4_1_1 [J]
Zone,Meter,General:InteriorEquipment:Electricity:Zone:OFFICE_PRIVATE_4_1_1 [J]
Zone,Meter,InteriorEquipment:Electricity:Zone:STORAGE_4_1_2 [J]
Zone,Meter,General:InteriorEquipment:Electricity:Zone:STORAGE_4_1_2 [J]
Zone,Meter,InteriorEquipment:Electricity:Zone:OFFICE_OPEN_4_2_0 [J]
Zone,Meter,General:InteriorEquipment:Electricity:Zone:OFFICE_OPEN_4_2_0 [J]
Zone,Meter,InteriorEquipment:Electricity:Zone:OFFICE_PRIVATE_4_2_1 [J]
Zone,Meter,General:InteriorEquipment:Electricity:Zone:OFFICE_PRIVATE_4_2_1 [J]
Zone,Meter,InteriorEquipment:Electricity:Zone:STORAGE_4_2_2 [J]
Zone,Meter,General:InteriorEquipment:Electricity:Zone:STORAGE_4_2_2 [J]
Zone,Meter,InteriorEquipment:Electricity:Zone:LOBBY_5 [J]
Zone,Meter,General:InteriorEquipment:Electricity:Zone:LOBBY_5 [J]
Zone,Meter,InteriorEquipment:Electricity:Zone:BREAK_ROOM_5 [J]
Zone,Meter,General:InteriorEquipment:Electricity:Zone:BREAK_ROOM_5 [J]
Zone,Meter,InteriorEquipment:Electricity:Zone:MECHANICAL_5 [J]
Zone,Meter,General:InteriorEquipment:Electricity:Zone:MECHANICAL_5 [J]
Zone,Meter,InteriorEquipment:Electricity:Zone:OFFICE_OPEN_5_0_0 [J]
Zone,Meter,General:InteriorEquipment:Electricity:Zone:OFFICE_OPEN_5_0_0 [J]
Zone,Meter,InteriorEquipment:Electricity:Zone:OFFICE_PRIVATE_5_0_1 [J]
Zone,Meter,General:InteriorEquipment:Electricity:Zone:OFFICE_PRIVATE_5_0_1 [J]
Zone,Meter,InteriorEquipment:Electricity:Zone:STORAGE_5_0_2 [J]
Zone,Meter,General:InteriorEquipment:Electricity:Zone:STORAGE_5_0_2 [J]
Zone,Meter,InteriorEquipment:Electricity:Zone:OFFICE_OPEN_5_1_0 [J]
Zone,Meter,General:InteriorEquipment:Electricity:Zone:OFFICE_OPEN_5_1_0 [J]
Zone,Meter,InteriorEquipment:Electricity:Zone:OFFICE_PRIVATE_5_1_1 [J]
Zone,Meter,General:InteriorEquipment:Electricity:Zone:OFFICE_PRIVATE_5_1_1 [J]
Zone,Meter,InteriorEquipment:Electricity:Zone:STORAGE_5_1_2 [J]
Zone,Meter,General:InteriorEquipment:Electricity:Zone:STORAGE_5_1_2 [J]
Zone,Meter,InteriorEquipment:Electricity:Zone:OFFICE_OPEN_5_2_0 [J]
Zone,Meter,General:InteriorEquipment:Electricity:Zone:OFFICE_OPEN_5_2_0 [J]
Zone,Meter,InteriorEquipment:Electricity:Zone:OFFICE_PRIVATE_5_2_1 [J]
Zone,Meter,General:InteriorEquipment:Electricity:Zone:OFFICE_PRIVATE_5_2_1 [J]
Zone,Meter,InteriorEquipment:Electricity:Zone:STORAGE_5_2_2 [J]
Zone,Meter,General:InteriorEquipment:Electricity:Zone:STORAGE_5_2_2 [J]
Zone,Meter,InteriorEquipment:Electricity:Zone:LOBBY_6 [J]
Zone,Meter,General:InteriorEquipment:Electricity:Zone:LOBBY_6 [J]
Zone,Meter,InteriorEquipment:Electricity:Zone:BREAK_ROOM_6 [J]
Zone,Meter,General:InteriorEquipment:Electricity:Zone:BREAK_ROOM_6 [J]
Zone,Meter,InteriorEquipment:Electricity:Zone:MECHANICAL_6 [J]
Zone,Meter,General:InteriorEquipment:Electricity:Zone:MECHANICAL_6 [J]
Zone,Meter,InteriorEquipment:Electricity:Zone:OFFICE_OPEN_6_0_0 [J]
Zone,Meter,General:InteriorEquipment:Electricity:Zone:OFFICE_OPEN_6_0_0 [J]
Zone,Meter,InteriorEquipment:Electricity:Zone:OFFICE_PRIVATE_6_0_1 [J]
Zone,Meter,General:InteriorEquipment:Electricity:Zone:OFFICE_PRIVATE_6_0_1 [J]
Zone,Meter,InteriorEquipment:Electricity:Zone:STORAGE_6_0_2 [J]
Zone,Meter,General:InteriorEquipment:Electricity:Zone:STORAGE_6_0_2 [J]
Zone,Meter,InteriorEquipment:Electricity:Zone:OFFICE_OPEN_6_1_0 [J]
Zone,Meter,General:InteriorEquipment:Electricity:Zone:OFFICE_OPEN_6_1_0 [J]
Zone,Meter,InteriorEquipment:Electricity:Zone:OFFICE_PRIVATE_6_1_1 [J]
Zone,Meter,General:InteriorEquipment:Electricity:Zone:OFFICE_PRIVATE_6_1_1 [J]
Zone,Meter,InteriorEquipment:Electricity:Zone:STORAGE_6_1_2 [J]
Zone,Meter,General:InteriorEquipment:Electricity:Zone:STORAGE_6_1_2 [J]
Zone,Meter,InteriorEquipment:Electricity:Zone:OFFICE_OPEN_6_2_0 [J]
Zone,Meter,General:InteriorEquipment:Electricity:Zone:OFFICE_OPEN_6_2_0 [J]
Zone,Meter,InteriorEquipment:Electricity:Zone:OFFICE_PRIVATE_6_2_1 [J]
Zone,Meter,General:InteriorEquipment:Electricity:Zone:OFFICE_PRIVATE_6_2_1 [J]
Zone,Meter,InteriorEquipment:Electricity:Zone:STORAGE_6_2_2 [J]
Zone,Meter,General:InteriorEquipment:Electricity:Zone:STORAGE_6_2_2 [J]
Zone,Meter,InteriorEquipment:Electricity:Zone:LOBBY_7 [J]
Zone,Meter,General:InteriorEquipment:Electricity:Zone:LOBBY_7 [J]
Zone,Meter,InteriorEquipment:Electricity:Zone:CONFERENCE_7 [J]
Zone,Meter,General:InteriorEquipment:Electricity:Zone:CONFERENCE_7 [J]
Zone,Meter,InteriorEquipment:Electricity:Zone:OFFICE_OPEN_7_0_0 [J]
Zone,Meter,General:InteriorEquipment:Electricity:Zone:OFFICE_OPEN_7_0_0 [J]
Zone,Meter,InteriorEquipment:Electricity:Zone:OFFICE_PRIVATE_7_0_1 [J]
Zone,Meter,General:InteriorEquipment:Electricity:Zone:OFFICE_PRIVATE_7_0_1 [J]
Zone,Meter,InteriorEquipment:Electricity:Zone:STORAGE_7_0_2 [J]
Zone,Meter,General:InteriorEquipment:Electricity:Zone:STORAGE_7_0_2 [J]
Zone,Meter,InteriorEquipment:Electricity:Zone:OFFICE_OPEN_7_1_0 [J]
Zone,Meter,General:InteriorEquipment:Electricity:Zone:OFFICE_OPEN_7_1_0 [J]
Zone,Meter,InteriorEquipment:Electricity:Zone:OFFICE_PRIVATE_7_1_1 [J]
Zone,Meter,General:InteriorEquipment:Electricity:Zone:OFFICE_PRIVATE_7_1_1 [J]
Zone,Meter,InteriorEquipment:Electricity:Zone:STORAGE_7_1_2 [J]
Zone,Meter,General:InteriorEquipment:Electricity:Zone:STORAGE_7_1_2 [J]
Zone,Meter,InteriorEquipment:Electricity:Zone:OFFICE_OPEN_7_2_0 [J]
Zone,Meter,General:InteriorEquipment:Electricity:Zone:OFFICE_OPEN_7_2_0 [J]
Zone,Meter,InteriorEquipment:Electricity:Zone:OFFICE_PRIVATE_7_2_1 [J]
Zone,Meter,General:InteriorEquipment:Electricity:Zone:OFFICE_PRIVATE_7_2_1 [J]
Zone,Meter,InteriorEquipment:Electricity:Zone:STORAGE_7_2_2 [J]
Zone,Meter,General:InteriorEquipment:Electricity:Zone:STORAGE_7_2_2 [J]
Zone,Meter,InteriorEquipment:Electricity:Zone:LOBBY_8 [J]
Zone,Meter,General:InteriorEquipment:Electricity:Zone:LOBBY_8 [J]
Zone,Meter,InteriorEquipment:Electricity:Zone:BREAK_ROOM_8 [J]
Zone,Meter,General:InteriorEquipment:Electricity:Zone:BREAK_ROOM_8 [J]
Zone,Meter,InteriorEquipment:Electricity:Zone:MECHANICAL_8 [J]
Zone,Meter,General:InteriorEquipment:Electricity:Zone:MECHANICAL_8 [J]
Zone,Meter,InteriorEquipment:Electricity:Zone:OFFICE_OPEN_8_0_0 [J]
Zone,Meter,General:InteriorEquipment:Electricity:Zone:OFFICE_OPEN_8_0_0 [J]
Zone,Meter,InteriorEquipment:Electricity:Zone:OFFICE_PRIVATE_8_0_1 [J]
Zone,Meter,General:InteriorEquipment:Electricity:Zone:OFFICE_PRIVATE_8_0_1 [J]
Zone,Meter,InteriorEquipment:Electricity:Zone:STORAGE_8_0_2 [J]
Zone,Meter,General:InteriorEquipment:Electricity:Zone:STORAGE_8_0_2 [J]
Zone,Meter,InteriorEquipment:Electricity:Zone:OFFICE_OPEN_8_1_0 [J]
Zone,Meter,General:InteriorEquipment:Electricity:Zone:OFFICE_OPEN_8_1_0 [J]
Zone,Meter,InteriorEquipment:Electricity:Zone:OFFICE_PRIVATE_8_1_1 [J]
Zone,Meter,General:InteriorEquipment:Electricity:Zone:OFFICE_PRIVATE_8_1_1 [J]
Zone,Meter,InteriorEquipment:Electricity:Zone:STORAGE_8_1_2 [J]
Zone,Meter,General:InteriorEquipment:Electricity:Zone:STORAGE_8_1_2 [J]
Zone,Meter,InteriorEquipment:Electricity:Zone:OFFICE_OPEN_8_2_0 [J]
Zone,Meter,General:InteriorEquipment:Electricity:Zone:OFFICE_OPEN_8_2_0 [J]
Zone,Meter,InteriorEquipment:Electricity:Zone:OFFICE_PRIVATE_8_2_1 [J]
Zone,Meter,General:InteriorEquipment:Electricity:Zone:OFFICE_PRIVATE_8_2_1 [J]
Zone,Meter,InteriorEquipment:Electricity:Zone:STORAGE_8_2_2 [J]
Zone,Meter,General:InteriorEquipment:Electricity:Zone:STORAGE_8_2_2 [J]
Zone,Meter,InteriorEquipment:Electricity:Zone:CONFERENCE_9 [J]
Zone,Meter,General:InteriorEquipment:Electricity:Zone:CONFERENCE_9 [J]
Zone,Meter,InteriorEquipment:Electricity:Zone:BREAK_ROOM_9 [J]
Zone,Meter,General:InteriorEquipment:Electricity:Zone:BREAK_ROOM_9 [J]
Zone,Meter,InteriorEquipment:Electricity:Zone:MECHANICAL_9 [J]
Zone,Meter,General:InteriorEquipment:Electricity:Zone:MECHANICAL_9 [J]
Zone,Meter,InteriorEquipment:Electricity:Zone:OFFICE_OPEN_9_0_0 [J]
Zone,Meter,General:InteriorEquipment:Electricity:Zone:OFFICE_OPEN_9_0_0 [J]
Zone,Meter,InteriorEquipment:Electricity:Zone:OFFICE_PRIVATE_9_0_1 [J]
Zone,Meter,General:InteriorEquipment:Electricity:Zone:OFFICE_PRIVATE_9_0_1 [J]
Zone,Meter,InteriorEquipment:Electricity:Zone:STORAGE_9_0_2 [J]
Zone,Meter,General:InteriorEquipment:Electricity:Zone:STORAGE_9_0_2 [J]
Zone,Meter,InteriorEquipment:Electricity:Zone:OFFICE_OPEN_9_1_0 [J]
Zone,Meter,General:InteriorEquipment:Electricity:Zone:OFFICE_OPEN_9_1_0 [J]
Zone,Meter,InteriorEquipment:Electricity:Zone:OFFICE_PRIVATE_9_1_1 [J]
Zone,Meter,General:InteriorEquipment:Electricity:Zone:OFFICE_PRIVATE_9_1_1 [J]
Zone,Meter,InteriorEquipment:Electricity:Zone:STORAGE_9_1_2 [J]
Zone,Meter,General:InteriorEquipment:Electricity:Zone:STORAGE_9_1_2 [J]
Zone,Meter,InteriorEquipment:Electricity:Zone:OFFICE_OPEN_9_2_0 [J]
Zone,Meter,General:InteriorEquipment:Electricity:Zone:OFFICE_OPEN_9_2_0 [J]
Zone,Meter,InteriorEquipment:Electricity:Zone:OFFICE_PRIVATE_9_2_1 [J]
Zone,Meter,General:InteriorEquipment:Electricity:Zone:OFFICE_PRIVATE_9_2_1 [J]
Zone,Meter,InteriorEquipment:Electricity:Zone:STORAGE_9_2_2 [J]
Zone,Meter,General:InteriorEquipment:Electricity:Zone:STORAGE_9_2_2 [J]
Zone,Meter,EnergyTransfer:Facility [J]
Zone,Meter,EnergyTransfer:Building [J]
Zone,Meter,EnergyTransfer:Zone:LOBBY_0 [J]
Zone,Meter,Heating:EnergyTransfer [J]
Zone,Meter,Heating:EnergyTransfer:Zone:LOBBY_0 [J]
Zone,Meter,General:Heating:EnergyTransfer [J]
Zone,Meter,General:Heating:EnergyTransfer:Zone:LOBBY_0 [J]
Zone,Meter,Cooling:EnergyTransfer [J]
Zone,Meter,Cooling:EnergyTransfer:Zone:LOBBY_0 [J]
Zone,Meter,General:Cooling:EnergyTransfer [J]
Zone,Meter,General:Cooling:EnergyTransfer:Zone:LOBBY_0 [J]
Zone,Meter,EnergyTransfer:Zone:CONFERENCE_0 [J]
Zone,Meter,Heating:EnergyTransfer:Zone:CONFERENCE_0 [J]
Zone,Meter,General:Heating:EnergyTransfer:Zone:CONFERENCE_0 [J]
Zone,Meter,Cooling:EnergyTransfer:Zone:CONFERENCE_0 [J]
Zone,Meter,General:Cooling:EnergyTransfer:Zone:CONFERENCE_0 [J]
Zone,Meter,EnergyTransfer:Zone:BREAK_ROOM_0 [J]
Zone,Meter,Heating:EnergyTransfer:Zone:BREAK_ROOM_0 [J]
Zone,Meter,General:Heating:EnergyTransfer:Zone:BREAK_ROOM_0 [J]
Zone,Meter,Cooling:EnergyTransfer:Zone:BREAK_ROOM_0 [J]
Zone,Meter,General:Cooling:EnergyTransfer:Zone:BREAK_ROOM_0 [J]
Zone,Meter,EnergyTransfer:Zone:MECHANICAL_0 [J]
Zone,Meter,Heating:EnergyTransfer:Zone:MECHANICAL_0 [J]
Zone,Meter,General:Heating:EnergyTransfer:Zone:MECHANICAL_0 [J]
Zone,Meter,Cooling:EnergyTransfer:Zone:MECHANICAL_0 [J]
Zone,Meter,General:Cooling:EnergyTransfer:Zone:MECHANICAL_0 [J]
Zone,Meter,EnergyTransfer:Zone:OFFICE_OPEN_0_0_0 [J]
Zone,Meter,Heating:EnergyTransfer:Zone:OFFICE_OPEN_0_0_0 [J]
Zone,Meter,General:Heating:EnergyTransfer:Zone:OFFICE_OPEN_0_0_0 [J]
Zone,Meter,Cooling:EnergyTransfer:Zone:OFFICE_OPEN_0_0_0 [J]
Zone,Meter,General:Cooling:EnergyTransfer:Zone:OFFICE_OPEN_0_0_0 [J]
Zone,Meter,EnergyTransfer:Zone:OFFICE_PRIVATE_0_0_1 [J]
Zone,Meter,Heating:EnergyTransfer:Zone:OFFICE_PRIVATE_0_0_1 [J]
Zone,Meter,General:Heating:EnergyTransfer:Zone:OFFICE_PRIVATE_0_0_1 [J]
Zone,Meter,Cooling:EnergyTransfer:Zone:OFFICE_PRIVATE_0_0_1 [J]
Zone,Meter,General:Cooling:EnergyTransfer:Zone:OFFICE_PRIVATE_0_0_1 [J]
Zone,Meter,EnergyTransfer:Zone:STORAGE_0_0_2 [J]
Zone,Meter,Heating:EnergyTransfer:Zone:STORAGE_0_0_2 [J]
Zone,Meter,General:Heating:EnergyTransfer:Zone:STORAGE_0_0_2 [J]
Zone,Meter,Cooling:EnergyTransfer:Zone:STORAGE_0_0_2 [J]
Zone,Meter,General:Cooling:EnergyTransfer:Zone:STORAGE_0_0_2 [J]
Zone,Meter,EnergyTransfer:Zone:OFFICE_OPEN_0_1_0 [J]
Zone,Meter,Heating:EnergyTransfer:Zone:OFFICE_OPEN_0_1_0 [J]
Zone,Meter,General:Heating:EnergyTransfer:Zone:OFFICE_OPEN_0_1_0 [J]
Zone,Meter,Cooling:EnergyTransfer:Zone:OFFICE_OPEN_0_1_0 [J]
Zone,Meter,General:Cooling:EnergyTransfer:Zone:OFFICE_OPEN_0_1_0 [J]
Zone,Meter,EnergyTransfer:Zone:OFFICE_PRIVATE_0_1_1 [J]
Zone,Meter,Heating:EnergyTransfer:Zone:OFFICE_PRIVATE_0_1_1 [J]
Zone,Meter,General:Heating:EnergyTransfer:Zone:OFFICE_PRIVATE_0_1_1 [J]
Zone,Meter,Cooling:EnergyTransfer:Zone:OFFICE_PRIVATE_0_1_1 [J]
Zone,Meter,General:Cooling:EnergyTransfer:Zone:OFFICE_PRIVATE_0_1_1 [J]
Zone,Meter,EnergyTransfer:Zone:STORAGE_0_1_2 [J]
Zone,Meter,Heating:EnergyTransfer:Zone:STORAGE_0_1_2 [J]
Zone,Meter,General:Heating:EnergyTransfer:Zone:STORAGE_0_1_2 [J]
Zone,Meter,Cooling:EnergyTransfer:Zone:STORAGE_0_1_2 [J]
Zone,Meter,General:Cooling:EnergyTransfer:Zone:STORAGE_0_1_2 [J]
Zone,Meter,EnergyTransfer:Zone:OFFICE_OPEN_0_2_0 [J]
Zone,Meter,Heating:EnergyTransfer:Zone:OFFICE_OPEN_0_2_0 [J]
Zone,Meter,General:Heating:EnergyTransfer:Zone:OFFICE_OPEN_0_2_0 [J]
Zone,Meter,Cooling:EnergyTransfer:Zone:OFFICE_OPEN_0_2_0 [J]
Zone,Meter,General:Cooling:EnergyTransfer:Zone:OFFICE_OPEN_0_2_0 [J]
Zone,Meter,EnergyTransfer:Zone:OFFICE_PRIVATE_0_2_1 [J]
Zone,Meter,Heating:EnergyTransfer:Zone:OFFICE_PRIVATE_0_2_1 [J]
Zone,Meter,General:Heating:EnergyTransfer:Zone:OFFICE_PRIVATE_0_2_1 [J]
Zone,Meter,Cooling:EnergyTransfer:Zone:OFFICE_PRIVATE_0_2_1 [J]
Zone,Meter,General:Cooling:EnergyTransfer:Zone:OFFICE_PRIVATE_0_2_1 [J]
Zone,Meter,EnergyTransfer:Zone:STORAGE_0_2_2 [J]
Zone,Meter,Heating:EnergyTransfer:Zone:STORAGE_0_2_2 [J]
Zone,Meter,General:Heating:EnergyTransfer:Zone:STORAGE_0_2_2 [J]
Zone,Meter,Cooling:EnergyTransfer:Zone:STORAGE_0_2_2 [J]
Zone,Meter,General:Cooling:EnergyTransfer:Zone:STORAGE_0_2_2 [J]
Zone,Meter,EnergyTransfer:Zone:CONFERENCE_1 [J]
Zone,Meter,Heating:EnergyTransfer:Zone:CONFERENCE_1 [J]
Zone,Meter,General:Heating:EnergyTransfer:Zone:CONFERENCE_1 [J]
Zone,Meter,Cooling:EnergyTransfer:Zone:CONFERENCE_1 [J]
Zone,Meter,General:Cooling:EnergyTransfer:Zone:CONFERENCE_1 [J]
Zone,Meter,EnergyTransfer:Zone:BREAK_ROOM_1 [J]
Zone,Meter,Heating:EnergyTransfer:Zone:BREAK_ROOM_1 [J]
Zone,Meter,General:Heating:EnergyTransfer:Zone:BREAK_ROOM_1 [J]
Zone,Meter,Cooling:EnergyTransfer:Zone:BREAK_ROOM_1 [J]
Zone,Meter,General:Cooling:EnergyTransfer:Zone:BREAK_ROOM_1 [J]
Zone,Meter,EnergyTransfer:Zone:MECHANICAL_1 [J]
Zone,Meter,Heating:EnergyTransfer:Zone:MECHANICAL_1 [J]
Zone,Meter,General:Heating:EnergyTransfer:Zone:MECHANICAL_1 [J]
Zone,Meter,Cooling:EnergyTransfer:Zone:MECHANICAL_1 [J]
Zone,Meter,General:Cooling:EnergyTransfer:Zone:MECHANICAL_1 [J]
Zone,Meter,EnergyTransfer:Zone:OFFICE_OPEN_1_0_0 [J]
Zone,Meter,Heating:EnergyTransfer:Zone:OFFICE_OPEN_1_0_0 [J]
Zone,Meter,General:Heating:EnergyTransfer:Zone:OFFICE_OPEN_1_0_0 [J]
Zone,Meter,Cooling:EnergyTransfer:Zone:OFFICE_OPEN_1_0_0 [J]
Zone,Meter,General:Cooling:EnergyTransfer:Zone:OFFICE_OPEN_1_0_0 [J]
Zone,Meter,EnergyTransfer:Zone:OFFICE_PRIVATE_1_0_1 [J]
Zone,Meter,Heating:EnergyTransfer:Zone:OFFICE_PRIVATE_1_0_1 [J]
Zone,Meter,General:Heating:EnergyTransfer:Zone:OFFICE_PRIVATE_1_0_1 [J]
Zone,Meter,Cooling:EnergyTransfer:Zone:OFFICE_PRIVATE_1_0_1 [J]
Zone,Meter,General:Cooling:EnergyTransfer:Zone:OFFICE_PRIVATE_1_0_1 [J]
Zone,Meter,EnergyTransfer:Zone:STORAGE_1_0_2 [J]
Zone,Meter,Heating:EnergyTransfer:Zone:STORAGE_1_0_2 [J]
Zone,Meter,General:Heating:EnergyTransfer:Zone:STORAGE_1_0_2 [J]
Zone,Meter,Cooling:EnergyTransfer:Zone:STORAGE_1_0_2 [J]
Zone,Meter,General:Cooling:EnergyTransfer:Zone:STORAGE_1_0_2 [J]
Zone,Meter,EnergyTransfer:Zone:OFFICE_OPEN_1_1_0 [J]
Zone,Meter,Heating:EnergyTransfer:Zone:OFFICE_OPEN_1_1_0 [J]
Zone,Meter,General:Heating:EnergyTransfer:Zone:OFFICE_OPEN_1_1_0 [J]
Zone,Meter,Cooling:EnergyTransfer:Zone:OFFICE_OPEN_1_1_0 [J]
Zone,Meter,General:Cooling:EnergyTransfer:Zone:OFFICE_OPEN_1_1_0 [J]
Zone,Meter,EnergyTransfer:Zone:OFFICE_PRIVATE_1_1_1 [J]
Zone,Meter,Heating:EnergyTransfer:Zone:OFFICE_PRIVATE_1_1_1 [J]
Zone,Meter,General:Heating:EnergyTransfer:Zone:OFFICE_PRIVATE_1_1_1 [J]
Zone,Meter,Cooling:EnergyTransfer:Zone:OFFICE_PRIVATE_1_1_1 [J]
Zone,Meter,General:Cooling:EnergyTransfer:Zone:OFFICE_PRIVATE_1_1_1 [J]
Zone,Meter,EnergyTransfer:Zone:STORAGE_1_1_2 [J]
Zone,Meter,Heating:EnergyTransfer:Zone:STORAGE_1_1_2 [J]
Zone,Meter,General:Heating:EnergyTransfer:Zone:STORAGE_1_1_2 [J]
Zone,Meter,Cooling:EnergyTransfer:Zone:STORAGE_1_1_2 [J]
Zone,Meter,General:Cooling:EnergyTransfer:Zone:STORAGE_1_1_2 [J]
Zone,Meter,EnergyTransfer:Zone:OFFICE_OPEN_1_2_0 [J]
Zone,Meter,Heating:EnergyTransfer:Zone:OFFICE_OPEN_1_2_0 [J]
Zone,Meter,General:Heating:EnergyTransfer:Zone:OFFICE_OPEN_1_2_0 [J]
Zone,Meter,Cooling:EnergyTransfer:Zone:OFFICE_OPEN_1_2_0 [J]
Zone,Meter,General:Cooling:EnergyTransfer:Zone:OFFICE_OPEN_1_2_0 [J]
Zone,Meter,EnergyTransfer:Zone:OFFICE_PRIVATE_1_2_1 [J]
Zone,Meter,Heating:EnergyTransfer:Zone:OFFICE_PRIVATE_1_2_1 [J]
Zone,Meter,General:Heating:EnergyTransfer:Zone:OFFICE_PRIVATE_1_2_1 [J]
Zone,Meter,Cooling:EnergyTransfer:Zone:OFFICE_PRIVATE_1_2_1 [J]
Zone,Meter,General:Cooling:EnergyTransfer:Zone:OFFICE_PRIVATE_1_2_1 [J]
Zone,Meter,EnergyTransfer:Zone:STORAGE_1_2_2 [J]
Zone,Meter,Heating:EnergyTransfer:Zone:STORAGE_1_2_2 [J]
Zone,Meter,General:Heating:EnergyTransfer:Zone:STORAGE_1_2_2 [J]
Zone,Meter,Cooling:EnergyTransfer:Zone:STORAGE_1_2_2 [J]
Zone,Meter,General:Cooling:EnergyTransfer:Zone:STORAGE_1_2_2 [J]
Zone,Meter,EnergyTransfer:Zone:LOBBY_2 [J]
Zone,Meter,Heating:EnergyTransfer:Zone:LOBBY_2 [J]
Zone,Meter,General:Heating:EnergyTransfer:Zone:LOBBY_2 [J]
Zone,Meter,Cooling:EnergyTransfer:Zone:LOBBY_2 [J]
Zone,Meter,General:Cooling:EnergyTransfer:Zone:LOBBY_2 [J]
Zone,Meter,EnergyTransfer:Zone:BREAK_ROOM_2 [J]
Zone,Meter,Heating:EnergyTransfer:Zone:BREAK_ROOM_2 [J]
Zone,Meter,General:Heating:EnergyTransfer:Zone:BREAK_ROOM_2 [J]
Zone,Meter,Cooling:EnergyTransfer:Zone:BREAK_ROOM_2 [J]
Zone,Meter,General:Cooling:EnergyTransfer:Zone:BREAK_ROOM_2 [J]
Zone,Meter,EnergyTransfer:Zone:MECHANICAL_2 [J]
Zone,Meter,Heating:EnergyTransfer:Zone:MECHANICAL_2 [J]
Zone,Meter,General:Heating:EnergyTransfer:Zone:MECHANICAL_2 [J]
Zone,Meter,Cooling:EnergyTransfer:Zone:MECHANICAL_2 [J]
Zone,Meter,General:Cooling:EnergyTransfer:Zone:MECHANICAL_2 [J]
Zone,Meter,EnergyTransfer:Zone:OFFICE_OPEN_2_0_0 [J]
Zone,Meter,Heating:EnergyTransfer:Zone:OFFICE_OPEN_2_0_0 [J]
Zone,Meter,General:Heating:EnergyTransfer:Zone:OFFICE_OPEN_2_0_0 [J]
Zone,Meter,Cooling:EnergyTransfer:Zone:OFFICE_OPEN_2_0_0 [J]
Zone,Meter,General:Cooling:EnergyTransfer:Zone:OFFICE_OPEN_2_0_0 [J]
Zone,Meter,EnergyTransfer:Zone:OFFICE_PRIVATE_2_0_1 [J]
Zone,Meter,Heating:EnergyTransfer:Zone:OFFICE_PRIVATE_2_0_1 [J]
Zone,Meter,General:Heating:EnergyTransfer:Zone:OFFICE_PRIVATE_2_0_1 [J]
Zone,Meter,Cooling:EnergyTransfer:Zone:OFFICE_PRIVATE_2_0_1 [J]
Zone,Meter,General:Cooling:EnergyTransfer:Zone:OFFICE_PRIVATE_2_0_1 [J]
Zone,Meter,EnergyTransfer:Zone:STORAGE_2_0_2 [J]
Zone,Meter,Heating:EnergyTransfer:Zone:STORAGE_2_0_2 [J]
Zone,Meter,General:Heating:EnergyTransfer:Zone:STORAGE_2_0_2 [J]
Zone,Meter,Cooling:EnergyTransfer:Zone:STORAGE_2_0_2 [J]
Zone,Meter,General:Cooling:EnergyTransfer:Zone:STORAGE_2_0_2 [J]
Zone,Meter,EnergyTransfer:Zone:OFFICE_OPEN_2_1_0 [J]
Zone,Meter,Heating:EnergyTransfer:Zone:OFFICE_OPEN_2_1_0 [J]
Zone,Meter,General:Heating:EnergyTransfer:Zone:OFFICE_OPEN_2_1_0 [J]
Zone,Meter,Cooling:EnergyTransfer:Zone:OFFICE_OPEN_2_1_0 [J]
Zone,Meter,General:Cooling:EnergyTransfer:Zone:OFFICE_OPEN_2_1_0 [J]
Zone,Meter,EnergyTransfer:Zone:OFFICE_PRIVATE_2_1_1 [J]
Zone,Meter,Heating:EnergyTransfer:Zone:OFFICE_PRIVATE_2_1_1 [J]
Zone,Meter,General:Heating:EnergyTransfer:Zone:OFFICE_PRIVATE_2_1_1 [J]
Zone,Meter,Cooling:EnergyTransfer:Zone:OFFICE_PRIVATE_2_1_1 [J]
Zone,Meter,General:Cooling:EnergyTransfer:Zone:OFFICE_PRIVATE_2_1_1 [J]
Zone,Meter,EnergyTransfer:Zone:STORAGE_2_1_2 [J]
Zone,Meter,Heating:EnergyTransfer:Zone:STORAGE_2_1_2 [J]
Zone,Meter,General:Heating:EnergyTransfer:Zone:STORAGE_2_1_2 [J]
Zone,Meter,Cooling:EnergyTransfer:Zone:STORAGE_2_1_2 [J]
Zone,Meter,General:Cooling:EnergyTransfer:Zone:STORAGE_2_1_2 [J]
Zone,Meter,EnergyTransfer:Zone:OFFICE_OPEN_2_2_0 [J]
Zone,Meter,Heating:EnergyTransfer:Zone:OFFICE_OPEN_2_2_0 [J]
Zone,Meter,General:Heating:EnergyTransfer:Zone:OFFICE_OPEN_2_2_0 [J]
Zone,Meter,Cooling:EnergyTransfer:Zone:OFFICE_OPEN_2_2_0 [J]
Zone,Meter,General:Cooling:EnergyTransfer:Zone:OFFICE_OPEN_2_2_0 [J]
Zone,Meter,EnergyTransfer:Zone:OFFICE_PRIVATE_2_2_1 [J]
Zone,Meter,Heating:EnergyTransfer:Zone:OFFICE_PRIVATE_2_2_1 [J]
Zone,Meter,General:Heating:EnergyTransfer:Zone:OFFICE_PRIVATE_2_2_1 [J]
Zone,Meter,Cooling:EnergyTransfer:Zone:OFFICE_PRIVATE_2_2_1 [J]
Zone,Meter,General:Cooling:EnergyTransfer:Zone:OFFICE_PRIVATE_2_2_1 [J]
Zone,Meter,EnergyTransfer:Zone:STORAGE_2_2_2 [J]
Zone,Meter,Heating:EnergyTransfer:Zone:STORAGE_2_2_2 [J]
Zone,Meter,General:Heating:EnergyTransfer:Zone:STORAGE_2_2_2 [J]
Zone,Meter,Cooling:EnergyTransfer:Zone:STORAGE_2_2_2 [J]
Zone,Meter,General:Cooling:EnergyTransfer:Zone:STORAGE_2_2_2 [J]
Zone,Meter,EnergyTransfer:Zone:LOBBY_3 [J]
Zone,Meter,Heating:EnergyTransfer:Zone:LOBBY_3 [J]
Zone,Meter,General:Heating:EnergyTransfer:Zone:LOBBY_3 [J]
Zone,Meter,Cooling:EnergyTransfer:Zone:LOBBY_3 [J]
Zone,Meter,General:Cooling:EnergyTransfer:Zone:LOBBY_3 [J]
Zone,Meter,EnergyTransfer:Zone:CONFERENCE_3 [J]
Zone,Meter,Heating:EnergyTransfer:Zone:CONFERENCE_3 [J]
Zone,Meter,General:Heating:EnergyTransfer:Zone:CONFERENCE_3 [J]
Zone,Meter,Cooling:EnergyTransfer:Zone:CONFERENCE_3 [J]
Zone,Meter,General:Cooling:EnergyTransfer:Zone:CONFERENCE_3 [J]
Zone,Meter,EnergyTransfer:Zone:BREAK_ROOM_3 [J]
Zone,Meter,Heating:EnergyTransfer:Zone:BREAK_ROOM_3 [J]
Zone,Meter,General:Heating:EnergyTransfer:Zone:BREAK_ROOM_3 [J]
Zone,Meter,Cooling:EnergyTransfer:Zone:BREAK_ROOM_3 [J]
Zone,Meter,General:Cooling:EnergyTransfer:Zone:BREAK_ROOM_3 [J]
Zone,Meter,EnergyTransfer:Zone:MECHANICAL_3 [J]
Zone,Meter,Heating:EnergyTransfer:Zone:MECHANICAL_3 [J]
Zone,Meter,General:Heating:EnergyTransfer:Zone:MECHANICAL_3 [J]
Zone,Meter,Cooling:EnergyTransfer:Zone:MECHANICAL_3 [J]
Zone,Meter,General:Cooling:EnergyTransfer:Zone:MECHANICAL_3 [J]
Zone,Meter,EnergyTransfer:Zone:OFFICE_OPEN_3_0_0 [J]
Zone,Meter,Heating:EnergyTransfer:Zone:OFFICE_OPEN_3_0_0 [J]
Zone,Meter,General:Heating:EnergyTransfer:Zone:OFFICE_OPEN_3_0_0 [J]
Zone,Meter,Cooling:EnergyTransfer:Zone:OFFICE_OPEN_3_0_0 [J]
Zone,Meter,General:Cooling:EnergyTransfer:Zone:OFFICE_OPEN_3_0_0 [J]
Zone,Meter,EnergyTransfer:Zone:OFFICE_PRIVATE_3_0_1 [J]
Zone,Meter,Heating:EnergyTransfer:Zone:OFFICE_PRIVATE_3_0_1 [J]
Zone,Meter,General:Heating:EnergyTransfer:Zone:OFFICE_PRIVATE_3_0_1 [J]
Zone,Meter,Cooling:EnergyTransfer:Zone:OFFICE_PRIVATE_3_0_1 [J]
Zone,Meter,General:Cooling:EnergyTransfer:Zone:OFFICE_PRIVATE_3_0_1 [J]
Zone,Meter,EnergyTransfer:Zone:STORAGE_3_0_2 [J]
Zone,Meter,Heating:EnergyTransfer:Zone:STORAGE_3_0_2 [J]
Zone,Meter,General:Heating:EnergyTransfer:Zone:STORAGE_3_0_2 [J]
Zone,Meter,Cooling:EnergyTransfer:Zone:STORAGE_3_0_2 [J]
Zone,Meter,General:Cooling:EnergyTransfer:Zone:STORAGE_3_0_2 [J]
Zone,Meter,EnergyTransfer:Zone:OFFICE_OPEN_3_1_0 [J]
Zone,Meter,Heating:EnergyTransfer:Zone:OFFICE_OPEN_3_1_0 [J]
Zone,Meter,General:Heating:EnergyTransfer:Zone:OFFICE_OPEN_3_1_0 [J]
Zone,Meter,Cooling:EnergyTransfer:Zone:OFFICE_OPEN_3_1_0 [J]
Zone,Meter,General:Cooling:EnergyTransfer:Zone:OFFICE_OPEN_3_1_0 [J]
Zone,Meter,EnergyTransfer:Zone:OFFICE_PRIVATE_3_1_1 [J]
Zone,Meter,Heating:EnergyTransfer:Zone:OFFICE_PRIVATE_3_1_1 [J]
Zone,Meter,General:Heating:EnergyTransfer:Zone:OFFICE_PRIVATE_3_1_1 [J]
Zone,Meter,Cooling:EnergyTransfer:Zone:OFFICE_PRIVATE_3_1_1 [J]
Zone,Meter,General:Cooling:EnergyTransfer:Zone:OFFICE_PRIVATE_3_1_1 [J]
Zone,Meter,EnergyTransfer:Zone:STORAGE_3_1_2 [J]
Zone,Meter,Heating:EnergyTransfer:Zone:STORAGE_3_1_2 [J]
Zone,Meter,General:Heating:EnergyTransfer:Zone:STORAGE_3_1_2 [J]
Zone,Meter,Cooling:EnergyTransfer:Zone:STORAGE_3_1_2 [J]
Zone,Meter,General:Cooling:EnergyTransfer:Zone:STORAGE_3_1_2 [J]
Zone,Meter,EnergyTransfer:Zone:OFFICE_OPEN_3_2_0 [J]
Zone,Meter,Heating:EnergyTransfer:Zone:OFFICE_OPEN_3_2_0 [J]
Zone,Meter,General:Heating:EnergyTransfer:Zone:OFFICE_OPEN_3_2_0 [J]
Zone,Meter,Cooling:EnergyTransfer:Zone:OFFICE_OPEN_3_2_0 [J]
Zone,Meter,General:Cooling:EnergyTransfer:Zone:OFFICE_OPEN_3_2_0 [J]
Zone,Meter,EnergyTransfer:Zone:OFFICE_PRIVATE_3_2_1 [J]
Zone,Meter,Heating:EnergyTransfer:Zone:OFFICE_PRIVATE_3_2_1 [J]
Zone,Meter,General:Heating:EnergyTransfer:Zone:OFFICE_PRIVATE_3_2_1 [J]
Zone,Meter,Cooling:EnergyTransfer:Zone:OFFICE_PRIVATE_3_2_1 [J]
Zone,Meter,General:Cooling:EnergyTransfer:Zone:OFFICE_PRIVATE_3_2_1 [J]
Zone,Meter,EnergyTransfer:Zone:STORAGE_3_2_2 [J]
Zone,Meter,Heating:EnergyTransfer:Zone:STORAGE_3_2_2 [J]
Zone,Meter,General:Heating:EnergyTransfer:Zone:STORAGE_3_2_2 [J]
Zone,Meter,Cooling:EnergyTransfer:Zone:STORAGE_3_2_2 [J]
Zone,Meter,General:Cooling:EnergyTransfer:Zone:STORAGE_3_2_2 [J]
Zone,Meter,EnergyTransfer:Zone:LOBBY_4 [J]
Zone,Meter,Heating:EnergyTransfer:Zone:LOBBY_4 [J]
Zone,Meter,General:Heating:EnergyTransfer:Zone:LOBBY_4 [J]
Zone,Meter,Cooling:EnergyTransfer:Zone:LOBBY_4 [J]
Zone,Meter,General:Cooling:EnergyTransfer:Zone:LOBBY_4 [J]
Zone,Meter,EnergyTransfer:Zone:CONFERENCE_4 [J]
Zone,Meter,Heating:EnergyTransfer:Zone:CONFERENCE_4 [J]
Zone,Meter,General:Heating:EnergyTransfer:Zone:CONFERENCE_4 [J]
Zone,Meter,Cooling:EnergyTransfer:Zone:CONFERENCE_4 [J]
Zone,Meter,General:Cooling:EnergyTransfer:Zone:CONFERENCE_4 [J]
Zone,Meter,EnergyTransfer:Zone:BREAK_ROOM_4 [J]
Zone,Meter,Heating:EnergyTransfer:Zone:BREAK_ROOM_4 [J]
Zone,Meter,General:Heating:EnergyTransfer:Zone:BREAK_ROOM_4 [J]
Zone,Meter,Cooling:EnergyTransfer:Zone:BREAK_ROOM_4 [J]
Zone,Meter,General:Cooling:EnergyTransfer:Zone:BREAK_ROOM_4 [J]
Zone,Meter,EnergyTransfer:Zone:MECHANICAL_4 [J]
Zone,Meter,Heating:EnergyTransfer:Zone:MECHANICAL_4 [J]
Zone,Meter,General:Heating:EnergyTransfer:Zone:MECHANICAL_4 [J]
Zone,Meter,Cooling:EnergyTransfer:Zone:MECHANICAL_4 [J]
Zone,Meter,General:Cooling:EnergyTransfer:Zone:MECHANICAL_4 [J]
Zone,Meter,EnergyTransfer:Zone:OFFICE_OPEN_4_0_0 [J]
Zone,Meter,Heating:EnergyTransfer:Zone:OFFICE_OPEN_4_0_0 [J]
Zone,Meter,General:Heating:EnergyTransfer:Zone:OFFICE_OPEN_4_0_0 [J]
Zone,Meter,Cooling:EnergyTransfer:Zone:OFFICE_OPEN_4_0_0 [J]
Zone,Meter,General:Cooling:EnergyTransfer:Zone:OFFICE_OPEN_4_0_0 [J]
Zone,Meter,EnergyTransfer:Zone:OFFICE_PRIVATE_4_0_1 [J]
Zone,Meter,Heating:EnergyTransfer:Zone:OFFICE_PRIVATE_4_0_1 [J]
Zone,Meter,General:Heating:EnergyTransfer:Zone:OFFICE_PRIVATE_4_0_1 [J]
Zone,Meter,Cooling:EnergyTransfer:Zone:OFFICE_PRIVATE_4_0_1 [J]
Zone,Meter,General:Cooling:EnergyTransfer:Zone:OFFICE_PRIVATE_4_0_1 [J]
Zone,Meter,EnergyTransfer:Zone:STORAGE_4_0_2 [J]
Zone,Meter,Heating:EnergyTransfer:Zone:STORAGE_4_0_2 [J]
Zone,Meter,General:Heating:EnergyTransfer:Zone:STORAGE_4_0_2 [J]
Zone,Meter,Cooling:EnergyTransfer:Zone:STORAGE_4_0_2 [J]
Zone,Meter,General:Cooling:EnergyTransfer:Zone:STORAGE_4_0_2 [J]
Zone,Meter,EnergyTransfer:Zone:OFFICE_OPEN_4_1_0 [J]
Zone,Meter,Heating:EnergyTransfer:Zone:OFFICE_OPEN_4_1_0 [J]
Zone,Meter,General:Heating:EnergyTransfer:Zone:OFFICE_OPEN_4_1_0 [J]
Zone,Meter,Cooling:EnergyTransfer:Zone:OFFICE_OPEN_4_1_0 [J]
Zone,Meter,General:Cooling:EnergyTransfer:Zone:OFFICE_OPEN_4_1_0 [J]
Zone,Meter,EnergyTransfer:Zone:OFFICE_PRIVATE_4_1_1 [J]
Zone,Meter,Heating:EnergyTransfer:Zone:OFFICE_PRIVATE_4_1_1 [J]
Zone,Meter,General:Heating:EnergyTransfer:Zone:OFFICE_PRIVATE_4_1_1 [J]
Zone,Meter,Cooling:EnergyTransfer:Zone:OFFICE_PRIVATE_4_1_1 [J]
Zone,Meter,General:Cooling:EnergyTransfer:Zone:OFFICE_PRIVATE_4_1_1 [J]
Zone,Meter,EnergyTransfer:Zone:STORAGE_4_1_2 [J]
Zone,Meter,Heating:EnergyTransfer:Zone:STORAGE_4_1_2 [J]
Zone,Meter,General:Heating:EnergyTransfer:Zone:STORAGE_4_1_2 [J]
Zone,Meter,Cooling:EnergyTransfer:Zone:STORAGE_4_1_2 [J]
Zone,Meter,General:Cooling:EnergyTransfer:Zone:STORAGE_4_1_2 [J]
Zone,Meter,EnergyTransfer:Zone:OFFICE_OPEN_4_2_0 [J]
Zone,Meter,Heating:EnergyTransfer:Zone:OFFICE_OPEN_4_2_0 [J]
Zone,Meter,General:Heating:EnergyTransfer:Zone:OFFICE_OPEN_4_2_0 [J]
Zone,Meter,Cooling:EnergyTransfer:Zone:OFFICE_OPEN_4_2_0 [J]
Zone,Meter,General:Cooling:EnergyTransfer:Zone:OFFICE_OPEN_4_2_0 [J]
Zone,Meter,EnergyTransfer:Zone:OFFICE_PRIVATE_4_2_1 [J]
Zone,Meter,Heating:EnergyTransfer:Zone:OFFICE_PRIVATE_4_2_1 [J]
Zone,Meter,General:Heating:EnergyTransfer:Zone:OFFICE_PRIVATE_4_2_1 [J]
Zone,Meter,Cooling:EnergyTransfer:Zone:OFFICE_PRIVATE_4_2_1 [J]
Zone,Meter,General:Cooling:EnergyTransfer:Zone:OFFICE_PRIVATE_4_2_1 [J]
Zone,Meter,EnergyTransfer:Zone:STORAGE_4_2_2 [J]
Zone,Meter,Heating:EnergyTransfer:Zone:STORAGE_4_2_2 [J]
Zone,Meter,General:Heating:EnergyTransfer:Zone:STORAGE_4_2_2 [J]
Zone,Meter,Cooling:EnergyTransfer:Zone:STORAGE_4_2_2 [J]
Zone,Meter,General:Cooling:EnergyTransfer:Zone:STORAGE_4_2_2 [J]
Zone,Meter,EnergyTransfer:Zone:LOBBY_5 [J]
Zone,Meter,Heating:EnergyTransfer:Zone:LOBBY_5 [J]
Zone,Meter,General:Heating:EnergyTransfer:Zone:LOBBY_5 [J]
Zone,Meter,Cooling:EnergyTransfer:Zone:LOBBY_5 [J]
Zone,Meter,General:Cooling:EnergyTransfer:Zone:LOBBY_5 [J]
Zone,Meter,EnergyTransfer:Zone:BREAK_ROOM_5 [J]
Zone,Meter,Heating:EnergyTransfer:Zone:BREAK_ROOM_5 [J]
Zone,Meter,General:Heating:EnergyTransfer:Zone:BREAK_ROOM_5 [J]
Zone,Meter,Cooling:EnergyTransfer:Zone:BREAK_ROOM_5 [J]
Zone,Meter,General:Cooling:EnergyTransfer:Zone:BREAK_ROOM_5 [J]
Zone,Meter,EnergyTransfer:Zone:MECHANICAL_5 [J]
Zone,Meter,Heating:EnergyTransfer:Zone:MECHANICAL_5 [J]
Zone,Meter,General:Heating:EnergyTransfer:Zone:MECHANICAL_5 [J]
Zone,Meter,Cooling:EnergyTransfer:Zone:MECHANICAL_5 [J]
Zone,Meter,General:Cooling:EnergyTransfer:Zone:MECHANICAL_5 [J]
Zone,Meter,EnergyTransfer:Zone:OFFICE_OPEN_5_0_0 [J]
Zone,Meter,Heating:EnergyTransfer:Zone:OFFICE_OPEN_5_0_0 [J]
Zone,Meter,General:Heating:EnergyTransfer:Zone:OFFICE_OPEN_5_0_0 [J]
Zone,Meter,Cooling:EnergyTransfer:Zone:OFFICE_OPEN_5_0_0 [J]
Zone,Meter,General:Cooling:EnergyTransfer:Zone:OFFICE_OPEN_5_0_0 [J]
Zone,Meter,EnergyTransfer:Zone:OFFICE_PRIVATE_5_0_1 [J]
Zone,Meter,Heating:EnergyTransfer:Zone:OFFICE_PRIVATE_5_0_1 [J]
Zone,Meter,General:Heating:EnergyTransfer:Zone:OFFICE_PRIVATE_5_0_1 [J]
Zone,Meter,Cooling:EnergyTransfer:Zone:OFFICE_PRIVATE_5_0_1 [J]
Zone,Meter,General:Cooling:EnergyTransfer:Zone:OFFICE_PRIVATE_5_0_1 [J]
Zone,Meter,EnergyTransfer:Zone:STORAGE_5_0_2 [J]
Zone,Meter,Heating:EnergyTransfer:Zone:STORAGE_5_0_2 [J]
Zone,Meter,General:Heating:EnergyTransfer:Zone:STORAGE_5_0_2 [J]
Zone,Meter,Cooling:EnergyTransfer:Zone:STORAGE_5_0_2 [J]
Zone,Meter,General:Cooling:EnergyTransfer:Zone:STORAGE_5_0_2 [J]
Zone,Meter,EnergyTransfer:Zone:OFFICE_OPEN_5_1_0 [J]
Zone,Meter,Heating:EnergyTransfer:Zone:OFFICE_OPEN_5_1_0 [J]
Zone,Meter,General:Heating:EnergyTransfer:Zone:OFFICE_OPEN_5_1_0 [J]
Zone,Meter,Cooling:EnergyTransfer:Zone:OFFICE_OPEN_5_1_0 [J]
Zone,Meter,General:Cooling:EnergyTransfer:Zone:OFFICE_OPEN_5_1_0 [J]
Zone,Meter,EnergyTransfer:Zone:OFFICE_PRIVATE_5_1_1 [J]
Zone,Meter,Heating:EnergyTransfer:Zone:OFFICE_PRIVATE_5_1_1 [J]
Zone,Meter,General:Heating:EnergyTransfer:Zone:OFFICE_PRIVATE_5_1_1 [J]
Zone,Meter,Cooling:EnergyTransfer:Zone:OFFICE_PRIVATE_5_1_1 [J]
Zone,Meter,General:Cooling:EnergyTransfer:Zone:OFFICE_PRIVATE_5_1_1 [J]
Zone,Meter,EnergyTransfer:Zone:STORAGE_5_1_2 [J]
Zone,Meter,Heating:EnergyTransfer:Zone:STORAGE_5_1_2 [J]
Zone,Meter,General:Heating:EnergyTransfer:Zone:STORAGE_5_1_2 [J]
Zone,Meter,Cooling:EnergyTransfer:Zone:STORAGE_5_1_2 [J]
Zone,Meter,General:Cooling:EnergyTransfer:Zone:STORAGE_5_1_2 [J]
Zone,Meter,EnergyTransfer:Zone:OFFICE_OPEN_5_2_0 [J]
Zone,Meter,Heating:EnergyTransfer:Zone:OFFICE_OPEN_5_2_0 [J]
Zone,Meter,General:Heating:EnergyTransfer:Zone:OFFICE_OPEN_5_2_0 [J]
Zone,Meter,Cooling:EnergyTransfer:Zone:OFFICE_OPEN_5_2_0 [J]
Zone,Meter,General:Cooling:EnergyTransfer:Zone:OFFICE_OPEN_5_2_0 [J]
Zone,Meter,EnergyTransfer:Zone:OFFICE_PRIVATE_5_2_1 [J]
Zone,Meter,Heating:EnergyTransfer:Zone:OFFICE_PRIVATE_5_2_1 [J]
Zone,Meter,General:Heating:EnergyTransfer:Zone:OFFICE_PRIVATE_5_2_1 [J]
Zone,Meter,Cooling:EnergyTransfer:Zone:OFFICE_PRIVATE_5_2_1 [J]
Zone,Meter,General:Cooling:EnergyTransfer:Zone:OFFICE_PRIVATE_5_2_1 [J]
Zone,Meter,EnergyTransfer:Zone:STORAGE_5_2_2 [J]
Zone,Meter,Heating:EnergyTransfer:Zone:STORAGE_5_2_2 [J]
Zone,Meter,General:Heating:EnergyTransfer:Zone:STORAGE_5_2_2 [J]
Zone,Meter,Cooling:EnergyTransfer:Zone:STORAGE_5_2_2 [J]
Zone,Meter,General:Cooling:EnergyTransfer:Zone:STORAGE_5_2_2 [J]
Zone,Meter,EnergyTransfer:Zone:LOBBY_6 [J]
Zone,Meter,Heating:EnergyTransfer:Zone:LOBBY_6 [J]
Zone,Meter,General:Heating:EnergyTransfer:Zone:LOBBY_6 [J]
Zone,Meter,Cooling:EnergyTransfer:Zone:LOBBY_6 [J]
Zone,Meter,General:Cooling:EnergyTransfer:Zone:LOBBY_6 [J]
Zone,Meter,EnergyTransfer:Zone:BREAK_ROOM_6 [J]
Zone,Meter,Heating:EnergyTransfer:Zone:BREAK_ROOM_6 [J]
Zone,Meter,General:Heating:EnergyTransfer:Zone:BREAK_ROOM_6 [J]
Zone,Meter,Cooling:EnergyTransfer:Zone:BREAK_ROOM_6 [J]
Zone,Meter,General:Cooling:EnergyTransfer:Zone:BREAK_ROOM_6 [J]
Zone,Meter,EnergyTransfer:Zone:MECHANICAL_6 [J]
Zone,Meter,Heating:EnergyTransfer:Zone:MECHANICAL_6 [J]
Zone,Meter,General:Heating:EnergyTransfer:Zone:MECHANICAL_6 [J]
Zone,Meter,Cooling:EnergyTransfer:Zone:MECHANICAL_6 [J]
Zone,Meter,General:Cooling:EnergyTransfer:Zone:MECHANICAL_6 [J]
Zone,Meter,EnergyTransfer:Zone:OFFICE_OPEN_6_0_0 [J]
Zone,Meter,Heating:EnergyTransfer:Zone:OFFICE_OPEN_6_0_0 [J]
Zone,Meter,General:Heating:EnergyTransfer:Zone:OFFICE_OPEN_6_0_0 [J]
Zone,Meter,Cooling:EnergyTransfer:Zone:OFFICE_OPEN_6_0_0 [J]
Zone,Meter,General:Cooling:EnergyTransfer:Zone:OFFICE_OPEN_6_0_0 [J]
Zone,Meter,EnergyTransfer:Zone:OFFICE_PRIVATE_6_0_1 [J]
Zone,Meter,Heating:EnergyTransfer:Zone:OFFICE_PRIVATE_6_0_1 [J]
Zone,Meter,General:Heating:EnergyTransfer:Zone:OFFICE_PRIVATE_6_0_1 [J]
Zone,Meter,Cooling:EnergyTransfer:Zone:OFFICE_PRIVATE_6_0_1 [J]
Zone,Meter,General:Cooling:EnergyTransfer:Zone:OFFICE_PRIVATE_6_0_1 [J]
Zone,Meter,EnergyTransfer:Zone:STORAGE_6_0_2 [J]
Zone,Meter,Heating:EnergyTransfer:Zone:STORAGE_6_0_2 [J]
Zone,Meter,General:Heating:EnergyTransfer:Zone:STORAGE_6_0_2 [J]
Zone,Meter,Cooling:EnergyTransfer:Zone:STORAGE_6_0_2 [J]
Zone,Meter,General:Cooling:EnergyTransfer:Zone:STORAGE_6_0_2 [J]
Zone,Meter,EnergyTransfer:Zone:OFFICE_OPEN_6_1_0 [J]
Zone,Meter,Heating:EnergyTransfer:Zone:OFFICE_OPEN_6_1_0 [J]
Zone,Meter,General:Heating:EnergyTransfer:Zone:OFFICE_OPEN_6_1_0 [J]
Zone,Meter,Cooling:EnergyTransfer:Zone:OFFICE_OPEN_6_1_0 [J]
Zone,Meter,General:Cooling:EnergyTransfer:Zone:OFFICE_OPEN_6_1_0 [J]
Zone,Meter,EnergyTransfer:Zone:OFFICE_PRIVATE_6_1_1 [J]
Zone,Meter,Heating:EnergyTransfer:Zone:OFFICE_PRIVATE_6_1_1 [J]
Zone,Meter,General:Heating:EnergyTransfer:Zone:OFFICE_PRIVATE_6_1_1 [J]
Zone,Meter,Cooling:EnergyTransfer:Zone:OFFICE_PRIVATE_6_1_1 [J]
Zone,Meter,General:Cooling:EnergyTransfer:Zone:OFFICE_PRIVATE_6_1_1 [J]
Zone,Meter,EnergyTransfer:Zone:STORAGE_6_1_2 [J]
Zone,Meter,Heating:EnergyTransfer:Zone:STORAGE_6_1_2 [J]
Zone,Meter,General:Heating:EnergyTransfer:Zone:STORAGE_6_1_2 [J]
Zone,Meter,Cooling:EnergyTransfer:Zone:STORAGE_6_1_2 [J]
Zone,Meter,General:Cooling:EnergyTransfer:Zone:STORAGE_6_1_2 [J]
Zone,Meter,EnergyTransfer:Zone:OFFICE_OPEN_6_2_0 [J]
Zone,Meter,Heating:EnergyTransfer:Zone:OFFICE_OPEN_6_2_0 [J]
Zone,Meter,General:Heating:EnergyTransfer:Zone:OFFICE_OPEN_6_2_0 [J]
Zone,Meter,Cooling:EnergyTransfer:Zone:OFFICE_OPEN_6_2_0 [J]
Zone,Meter,General:Cooling:EnergyTransfer:Zone:OFFICE_OPEN_6_2_0 [J]
Zone,Meter,EnergyTransfer:Zone:OFFICE_PRIVATE_6_2_1 [J]
Zone,Meter,Heating:EnergyTransfer:Zone:OFFICE_PRIVATE_6_2_1 [J]
Zone,Meter,General:Heating:EnergyTransfer:Zone:OFFICE_PRIVATE_6_2_1 [J]
Zone,Meter,Cooling:EnergyTransfer:Zone:OFFICE_PRIVATE_6_2_1 [J]
Zone,Meter,General:Cooling:EnergyTransfer:Zone:OFFICE_PRIVATE_6_2_1 [J]
Zone,Meter,EnergyTransfer:Zone:STORAGE_6_2_2 [J]
Zone,Meter,Heating:EnergyTransfer:Zone:STORAGE_6_2_2 [J]
Zone,Meter,General:Heating:EnergyTransfer:Zone:STORAGE_6_2_2 [J]
Zone,Meter,Cooling:EnergyTransfer:Zone:STORAGE_6_2_2 [J]
Zone,Meter,General:Cooling:EnergyTransfer:Zone:STORAGE_6_2_2 [J]
Zone,Meter,EnergyTransfer:Zone:LOBBY_7 [J]
Zone,Meter,Heating:EnergyTransfer:Zone:LOBBY_7 [J]
Zone,Meter,General:Heating:EnergyTransfer:Zone:LOBBY_7 [J]
Zone,Meter,Cooling:EnergyTransfer:Zone:LOBBY_7 [J]
Zone,Meter,General:Cooling:EnergyTransfer:Zone:LOBBY_7 [J]
Zone,Meter,EnergyTransfer:Zone:CONFERENCE_7 [J]
Zone,Meter,Heating:EnergyTransfer:Zone:CONFERENCE_7 [J]
Zone,Meter,General:Heating:EnergyTransfer:Zone:CONFERENCE_7 [J]
Zone,Meter,Cooling:EnergyTransfer:Zone:CONFERENCE_7 [J]
Zone,Meter,General:Cooling:EnergyTransfer:Zone:CONFERENCE_7 [J]
Zone,Meter,EnergyTransfer:Zone:OFFICE_OPEN_7_0_0 [J]
Zone,Meter,Heating:EnergyTransfer:Zone:OFFICE_OPEN_7_0_0 [J]
Zone,Meter,General:Heating:EnergyTransfer:Zone:OFFICE_OPEN_7_0_0 [J]
Zone,Meter,Cooling:EnergyTransfer:Zone:OFFICE_OPEN_7_0_0 [J]
Zone,Meter,General:Cooling:EnergyTransfer:Zone:OFFICE_OPEN_7_0_0 [J]
Zone,Meter,EnergyTransfer:Zone:OFFICE_PRIVATE_7_0_1 [J]
Zone,Meter,Heating:EnergyTransfer:Zone:OFFICE_PRIVATE_7_0_1 [J]
Zone,Meter,General:Heating:EnergyTransfer:Zone:OFFICE_PRIVATE_7_0_1 [J]
Zone,Meter,Cooling:EnergyTransfer:Zone:OFFICE_PRIVATE_7_0_1 [J]
Zone,Meter,General:Cooling:EnergyTransfer:Zone:OFFICE_PRIVATE_7_0_1 [J]
Zone,Meter,EnergyTransfer:Zone:STORAGE_7_0_2 [J]
Zone,Meter,Heating:EnergyTransfer:Zone:STORAGE_7_0_2 [J]
Zone,Meter,General:Heating:EnergyTransfer:Zone:STORAGE_7_0_2 [J]
Zone,Meter,Cooling:EnergyTransfer:Zone:STORAGE_7_0_2 [J]
Zone,Meter,General:Cooling:EnergyTransfer:Zone:STORAGE_7_0_2 [J]
Zone,Meter,EnergyTransfer:Zone:OFFICE_OPEN_7_1_0 [J]
Zone,Meter,Heating:EnergyTransfer:Zone:OFFICE_OPEN_7_1_0 [J]
Zone,Meter,General:Heating:EnergyTransfer:Zone:OFFICE_OPEN_7_1_0 [J]
Zone,Meter,Cooling:EnergyTransfer:Zone:OFFICE_OPEN_7_1_0 [J]
Zone,Meter,General:Cooling:EnergyTransfer:Zone:OFFICE_OPEN_7_1_0 [J]
Zone,Meter,EnergyTransfer:Zone:OFFICE_PRIVATE_7_1_1 [J]
Zone,Meter,Heating:EnergyTransfer:Zone:OFFICE_PRIVATE_7_1_1 [J]
Zone,Meter,General:Heating:EnergyTransfer:Zone:OFFICE_PRIVATE_7_1_1 [J]
Zone,Meter,Cooling:EnergyTransfer:Zone:OFFICE_PRIVATE_7_1_1 [J]
Zone,Meter,General:Cooling:EnergyTransfer:Zone:OFFICE_PRIVATE_7_1_1 [J]
Zone,Meter,EnergyTransfer:Zone:STORAGE_7_1_2 [J]
Zone,Meter,Heating:EnergyTransfer:Zone:STORAGE_7_1_2 [J]
Zone,Meter,General:Heating:EnergyTransfer:Zone:STORAGE_7_1_2 [J]
Zone,Meter,Cooling:EnergyTransfer:Zone:STORAGE_7_1_2 [J]
Zone,Meter,General:Cooling:EnergyTransfer:Zone:STORAGE_7_1_2 [J]
Zone,Meter,EnergyTransfer:Zone:OFFICE_OPEN_7_2_0 [J]
Zone,Meter,Heating:EnergyTransfer:Zone:OFFICE_OPEN_7_2_0 [J]
Zone,Meter,General:Heating:EnergyTransfer:Zone:OFFICE_OPEN_7_2_0 [J]
Zone,Meter,Cooling:EnergyTransfer:Zone:OFFICE_OPEN_7_2_0 [J]
Zone,Meter,General:Cooling:EnergyTransfer:Zone:OFFICE_OPEN_7_2_0 [J]
Zone,Meter,EnergyTransfer:Zone:OFFICE_PRIVATE_7_2_1 [J]
Zone,Meter,Heating:EnergyTransfer:Zone:OFFICE_PRIVATE_7_2_1 [J]
Zone,Meter,General:Heating:EnergyTransfer:Zone:OFFICE_PRIVATE_7_2_1 [J]
Zone,Meter,Cooling:EnergyTransfer:Zone:OFFICE_PRIVATE_7_2_1 [J]
Zone,Meter,General:Cooling:EnergyTransfer:Zone:OFFICE_PRIVATE_7_2_1 [J]
Zone,Meter,EnergyTransfer:Zone:STORAGE_7_2_2 [J]
Zone,Meter,Heating:EnergyTransfer:Zone:STORAGE_7_2_2 [J]
Zone,Meter,General:Heating:EnergyTransfer:Zone:STORAGE_7_2_2 [J]
Zone,Meter,Cooling:EnergyTransfer:Zone:STORAGE_7_2_2 [J]
Zone,Meter,General:Cooling:EnergyTransfer:Zone:STORAGE_7_2_2 [J]
Zone,Meter,EnergyTransfer:Zone:LOBBY_8 [J]
Zone,Meter,Heating:EnergyTransfer:Zone:LOBBY_8 [J]
Zone,Meter,General:Heating:EnergyTransfer:Zone:LOBBY_8 [J]
Zone,Meter,Cooling:EnergyTransfer:Zone:LOBBY_8 [J]
Zone,Meter,General:Cooling:EnergyTransfer:Zone:LOBBY_8 [J]
Zone,Meter,EnergyTransfer:Zone:BREAK_ROOM_8 [J]
Zone,Meter,Heating:EnergyTransfer:Zone:BREAK_ROOM_8 [J]
Zone,Meter,General:Heating:EnergyTransfer:Zone:BREAK_ROOM_8 [J]
Zone,Meter,Cooling:EnergyTransfer:Zone:BREAK_ROOM_8 [J]
Zone,Meter,General:Cooling:EnergyTransfer:Zone:BREAK_ROOM_8 [J]
Zone,Meter,EnergyTransfer:Zone:MECHANICAL_8 [J]
Zone,Meter,Heating:EnergyTransfer:Zone:MECHANICAL_8 [J]
Zone,Meter,General:Heating:EnergyTransfer:Zone:MECHANICAL_8 [J]
Zone,Meter,Cooling:EnergyTransfer:Zone:MECHANICAL_8 [J]
Zone,Meter,General:Cooling:EnergyTransfer:Zone:MECHANICAL_8 [J]
Zone,Meter,EnergyTransfer:Zone:OFFICE_OPEN_8_0_0 [J]
Zone,Meter,Heating:EnergyTransfer:Zone:OFFICE_OPEN_8_0_0 [J]
Zone,Meter,General:Heating:EnergyTransfer:Zone:OFFICE_OPEN_8_0_0 [J]
Zone,Meter,Cooling:EnergyTransfer:Zone:OFFICE_OPEN_8_0_0 [J]
Zone,Meter,General:Cooling:EnergyTransfer:Zone:OFFICE_OPEN_8_0_0 [J]
Zone,Meter,EnergyTransfer:Zone:OFFICE_PRIVATE_8_0_1 [J]
Zone,Meter,Heating:EnergyTransfer:Zone:OFFICE_PRIVATE_8_0_1 [J]
Zone,Meter,General:Heating:EnergyTransfer:Zone:OFFICE_PRIVATE_8_0_1 [J]
Zone,Meter,Cooling:EnergyTransfer:Zone:OFFICE_PRIVATE_8_0_1 [J]
Zone,Meter,General:Cooling:EnergyTransfer:Zone:OFFICE_PRIVATE_8_0_1 [J]
Zone,Meter,EnergyTransfer:Zone:STORAGE_8_0_2 [J]
Zone,Meter,Heating:EnergyTransfer:Zone:STORAGE_8_0_2 [J]
Zone,Meter,General:Heating:EnergyTransfer:Zone:STORAGE_8_0_2 [J]
Zone,Meter,Cooling:EnergyTransfer:Zone:STORAGE_8_0_2 [J]
Zone,Meter,General:Cooling:EnergyTransfer:Zone:STORAGE_8_0_2 [J]
Zone,Meter,EnergyTransfer:Zone:OFFICE_OPEN_8_1_0 [J]
Zone,Meter,Heating:EnergyTransfer:Zone:OFFICE_OPEN_8_1_0 [J]
Zone,Meter,General:Heating:EnergyTransfer:Zone:OFFICE_OPEN_8_1_0 [J]
Zone,Meter,Cooling:EnergyTransfer:Zone:OFFICE_OPEN_8_1_0 [J]
Zone,Meter,General:Cooling:EnergyTransfer:Zone:OFFICE_OPEN_8_1_0 [J]
Zone,Meter,EnergyTransfer:Zone:OFFICE_PRIVATE_8_1_1 [J]
Zone,Meter,Heating:EnergyTransfer:Zone:OFFICE_PRIVATE_8_1_1 [J]
Zone,Meter,General:Heating:EnergyTransfer:Zone:OFFICE_PRIVATE_8_1_1 [J]
Zone,Meter,Cooling:EnergyTransfer:Zone:OFFICE_PRIVATE_8_1_1 [J]
Zone,Meter,General:Cooling:EnergyTransfer:Zone:OFFICE_PRIVATE_8_1_1 [J]
Zone,Meter,EnergyTransfer:Zone:STORAGE_8_1_2 [J]
Zone,Meter,Heating:EnergyTransfer:Zone:STORAGE_8_1_2 [J]
Zone,Meter,General:Heating:EnergyTransfer:Zone:STORAGE_8_1_2 [J]
Zone,Meter,Cooling:EnergyTransfer:Zone:STORAGE_8_1_2 [J]
Zone,Meter,General:Cooling:EnergyTransfer:Zone:STORAGE_8_1_2 [J]
Zone,Meter,EnergyTransfer:Zone:OFFICE_OPEN_8_2_0 [J]
Zone,Meter,Heating:EnergyTransfer:Zone:OFFICE_OPEN_8_2_0 [J]
Zone,Meter,General:Heating:EnergyTransfer:Zone:OFFICE_OPEN_8_2_0 [J]
Zone,Meter,Cooling:EnergyTransfer:Zone:OFFICE_OPEN_8_2_0 [J]
Zone,Meter,General:Cooling:EnergyTransfer:Zone:OFFICE_OPEN_8_2_0 [J]
Zone,Meter,EnergyTransfer:Zone:OFFICE_PRIVATE_8_2_1 [J]
Zone,Meter,Heating:EnergyTransfer:Zone:OFFICE_PRIVATE_8_2_1 [J]
Zone,Meter,General:Heating:EnergyTransfer:Zone:OFFICE_PRIVATE_8_2_1 [J]
Zone,Meter,Cooling:EnergyTransfer:Zone:OFFICE_PRIVATE_8_2_1 [J]
Zone,Meter,General:Cooling:EnergyTransfer:Zone:OFFICE_PRIVATE_8_2_1 [J]
Zone,Meter,EnergyTransfer:Zone:STORAGE_8_2_2 [J]
Zone,Meter,Heating:EnergyTransfer:Zone:STORAGE_8_2_2 [J]
Zone,Meter,General:Heating:EnergyTransfer:Zone:STORAGE_8_2_2 [J]
Zone,Meter,Cooling:EnergyTransfer:Zone:STORAGE_8_2_2 [J]
Zone,Meter,General:Cooling:EnergyTransfer:Zone:STORAGE_8_2_2 [J]
Zone,Meter,EnergyTransfer:Zone:CONFERENCE_9 [J]
Zone,Meter,Heating:EnergyTransfer:Zone:CONFERENCE_9 [J]
Zone,Meter,General:Heating:EnergyTransfer:Zone:CONFERENCE_9 [J]
Zone,Meter,Cooling:EnergyTransfer:Zone:CONFERENCE_9 [J]
Zone,Meter,General:Cooling:EnergyTransfer:Zone:CONFERENCE_9 [J]
Zone,Meter,EnergyTransfer:Zone:BREAK_ROOM_9 [J]
Zone,Meter,Heating:EnergyTransfer:Zone:BREAK_ROOM_9 [J]
Zone,Meter,General:Heating:EnergyTransfer:Zone:BREAK_ROOM_9 [J]
Zone,Meter,Cooling:EnergyTransfer:Zone:BREAK_ROOM_9 [J]
Zone,Meter,General:Cooling:EnergyTransfer:Zone:BREAK_ROOM_9 [J]
Zone,Meter,EnergyTransfer:Zone:MECHANICAL_9 [J]
Zone,Meter,Heating:EnergyTransfer:Zone:MECHANICAL_9 [J]
Zone,Meter,General:Heating:EnergyTransfer:Zone:MECHANICAL_9 [J]
Zone,Meter,Cooling:EnergyTransfer:Zone:MECHANICAL_9 [J]
Zone,Meter,General:Cooling:EnergyTransfer:Zone:MECHANICAL_9 [J]
Zone,Meter,EnergyTransfer:Zone:OFFICE_OPEN_9_0_0 [J]
Zone,Meter,Heating:EnergyTransfer:Zone:OFFICE_OPEN_9_0_0 [J]
Zone,Meter,General:Heating:EnergyTransfer:Zone:OFFICE_OPEN_9_0_0 [J]
Zone,Meter,Cooling:EnergyTransfer:Zone:OFFICE_OPEN_9_0_0 [J]
Zone,Meter,General:Cooling:EnergyTransfer:Zone:OFFICE_OPEN_9_0_0 [J]
Zone,Meter,EnergyTransfer:Zone:OFFICE_PRIVATE_9_0_1 [J]
Zone,Meter,Heating:EnergyTransfer:Zone:OFFICE_PRIVATE_9_0_1 [J]
Zone,Meter,General:Heating:EnergyTransfer:Zone:OFFICE_PRIVATE_9_0_1 [J]
Zone,Meter,Cooling:EnergyTransfer:Zone:OFFICE_PRIVATE_9_0_1 [J]
Zone,Meter,General:Cooling:EnergyTransfer:Zone:OFFICE_PRIVATE_9_0_1 [J]
Zone,Meter,EnergyTransfer:Zone:STORAGE_9_0_2 [J]
Zone,Meter,Heating:EnergyTransfer:Zone:STORAGE_9_0_2 [J]
Zone,Meter,General:Heating:EnergyTransfer:Zone:STORAGE_9_0_2 [J]
Zone,Meter,Cooling:EnergyTransfer:Zone:STORAGE_9_0_2 [J]
Zone,Meter,General:Cooling:EnergyTransfer:Zone:STORAGE_9_0_2 [J]
Zone,Meter,EnergyTransfer:Zone:OFFICE_OPEN_9_1_0 [J]
Zone,Meter,Heating:EnergyTransfer:Zone:OFFICE_OPEN_9_1_0 [J]
Zone,Meter,General:Heating:EnergyTransfer:Zone:OFFICE_OPEN_9_1_0 [J]
Zone,Meter,Cooling:EnergyTransfer:Zone:OFFICE_OPEN_9_1_0 [J]
Zone,Meter,General:Cooling:EnergyTransfer:Zone:OFFICE_OPEN_9_1_0 [J]
Zone,Meter,EnergyTransfer:Zone:OFFICE_PRIVATE_9_1_1 [J]
Zone,Meter,Heating:EnergyTransfer:Zone:OFFICE_PRIVATE_9_1_1 [J]
Zone,Meter,General:Heating:EnergyTransfer:Zone:OFFICE_PRIVATE_9_1_1 [J]
Zone,Meter,Cooling:EnergyTransfer:Zone:OFFICE_PRIVATE_9_1_1 [J]
Zone,Meter,General:Cooling:EnergyTransfer:Zone:OFFICE_PRIVATE_9_1_1 [J]
Zone,Meter,EnergyTransfer:Zone:STORAGE_9_1_2 [J]
Zone,Meter,Heating:EnergyTransfer:Zone:STORAGE_9_1_2 [J]
Zone,Meter,General:Heating:EnergyTransfer:Zone:STORAGE_9_1_2 [J]
Zone,Meter,Cooling:EnergyTransfer:Zone:STORAGE_9_1_2 [J]
Zone,Meter,General:Cooling:EnergyTransfer:Zone:STORAGE_9_1_2 [J]
Zone,Meter,EnergyTransfer:Zone:OFFICE_OPEN_9_2_0 [J]
Zone,Meter,Heating:EnergyTransfer:Zone:OFFICE_OPEN_9_2_0 [J]
Zone,Meter,General:Heating:EnergyTransfer:Zone:OFFICE_OPEN_9_2_0 [J]
Zone,Meter,Cooling:EnergyTransfer:Zone:OFFICE_OPEN_9_2_0 [J]
Zone,Meter,General:Cooling:EnergyTransfer:Zone:OFFICE_OPEN_9_2_0 [J]
Zone,Meter,EnergyTransfer:Zone:OFFICE_PRIVATE_9_2_1 [J]
Zone,Meter,Heating:EnergyTransfer:Zone:OFFICE_PRIVATE_9_2_1 [J]
Zone,Meter,General:Heating:EnergyTransfer:Zone:OFFICE_PRIVATE_9_2_1 [J]
Zone,Meter,Cooling:EnergyTransfer:Zone:OFFICE_PRIVATE_9_2_1 [J]
Zone,Meter,General:Cooling:EnergyTransfer:Zone:OFFICE_PRIVATE_9_2_1 [J]
Zone,Meter,EnergyTransfer:Zone:STORAGE_9_2_2 [J]
Zone,Meter,Heating:EnergyTransfer:Zone:STORAGE_9_2_2 [J]
Zone,Meter,General:Heating:EnergyTransfer:Zone:STORAGE_9_2_2 [J]
Zone,Meter,Cooling:EnergyTransfer:Zone:STORAGE_9_2_2 [J]
Zone,Meter,General:Cooling:EnergyTransfer:Zone:STORAGE_9_2_2 [J]
Zone,Meter,EnergyTransfer:HVAC [J]
Zone,Meter,HeatingCoils:EnergyTransfer [J]
Zone,Meter,Electricity:HVAC [J]
Zone,Meter,Heating:Electricity [J]
Zone,Meter,General:Heating:Electricity [J]
Zone,Meter,Fans:Electricity [J]
Zone,Meter,General:Fans:Electricity [J]
Zone,Meter,CoolingCoils:EnergyTransfer [J]
Zone,Meter,Cooling:Electricity [J]
Zone,Meter,General:Cooling:Electricity [J]
Zone,Meter,ElectricityPurchased:Facility [J]
Zone,Meter,ElectricityPurchased:Plant [J]
Zone,Meter,Cogeneration:ElectricityPurchased [J]
Zone,Meter,General:Cogeneration:ElectricityPurchased [J]
Zone,Meter,ElectricitySurplusSold:Facility [J]
Zone,Meter,ElectricitySurplusSold:Plant [J]
Zone,Meter,Cogeneration:ElectricitySurplusSold [J]
Zone,Meter,General:Cogeneration:ElectricitySurplusSold [J]
Zone,Meter,ElectricityNet:Facility [J]
Zone,Meter,ElectricityNet:Plant [J]
Zone,Meter,Cogeneration:ElectricityNet [J]
Zone,Meter,General:Cogeneration:ElectricityNet [J]
Zone,Meter,Carbon Equivalent:Facility [kg]
Zone,Meter,CarbonEquivalentEmissions:Carbon Equivalent [kg]
