Program Version,EnergyPlus, Version 24.2.0-94a887817b, YMD=2025.11.02 19:22
! <Version>, Version ID
 Version, 24.2.0
! <Timesteps per Hour>, #TimeSteps, Minutes per TimeStep {minutes}
 Timesteps per Hour,  4, 15
! <System Convergence Limits>, Minimum System TimeStep {minutes}, Max HVAC Iterations, Minimum Plant Iterations, Maximum Plant Iterations
 System Convergence Limits, 1, 20, 2, 8
! <Simulation Control>, Do Zone Sizing, Do System Sizing, Do Plant Sizing, Do Design Days, Do Weather Simulation, Do HVAC Sizing Simulation
 Simulation Control, No, No, No, No, Yes, No
! <Performance Precision Tradeoffs>, Use Coil Direct Simulation, Zone Radiant Exchange Algorithm, Override Mode, Number of Timestep In Hour, Force Euler Method, Minimum Number of Warmup Days, Force Suppress All Begin Environment Resets, Minimum System Timestep, MaxZoneTempDiff, MaxAllowedDelTemp
 Performance Precision Tradeoffs, No, ScriptF, Normal, 4, No, 1, No, 1.0, 0.300, 2.0000E-003
! <Output Reporting Tolerances>, Tolerance for Time Heating Setpoint Not Met, Tolerance for Zone Cooling Setpoint Not Met Time
 Output Reporting Tolerances, 0.200, 0.200, 
! <Site:GroundTemperature:BuildingSurface>,Jan{C},Feb{C},Mar{C},Apr{C},May{C},Jun{C},Jul{C},Aug{C},Sep{C},Oct{C},Nov{C},Dec{C}
 Site:GroundTemperature:BuildingSurface,  13.00,  12.00,  11.00,  10.00,  11.00,  13.00,  15.00,  16.00,  16.00,  15.00,  14.00,  13.00
! <Site:GroundTemperature:FCfactorMethod>,Jan{C},Feb{C},Mar{C},Apr{C},May{C},Jun{C},Jul{C},Aug{C},Sep{C},Oct{C},Nov{C},Dec{C}
 Site:GroundTemperature:FCfactorMethod,  -1.89,  -3.06,  -0.99,   2.23,  10.68,  17.20,  21.60,  22.94,  20.66,  15.60,   8.83,   2.56
! <Site:GroundTemperature:Shallow>,Jan{C},Feb{C},Mar{C},Apr{C},May{C},Jun{C},Jul{C},Aug{C},Sep{C},Oct{C},Nov{C},Dec{C}
 Site:GroundTemperature:Shallow,  11.00,  10.00,   9.00,   8.00,   9.00,  11.00,  13.00,  14.00,  14.00,  13.00,  12.00,  11.00
! <Site:GroundTemperature:Deep>,Jan{C},Feb{C},Mar{C},Apr{C},May{C},Jun{C},Jul{C},Aug{C},Sep{C},Oct{C},Nov{C},Dec{C}
 Site:GroundTemperature:Deep,   9.00,   8.00,   7.00,   6.00,   7.00,   9.00,  11.00,  12.00,  12.00,  11.00,  10.00,   9.00
! <Site:GroundReflectance>,Jan{dimensionless},Feb{dimensionless},Mar{dimensionless},Apr{dimensionless},May{dimensionless},Jun{dimensionless},Jul{dimensionless},Aug{dimensionless},Sep{dimensionless},Oct{dimensionless},Nov{dimensionless},Dec{dimensionless}
 Site:GroundReflectance,  0.20,  0.20,  0.20,  0.20,  0.20,  0.20,  0.20,  0.20,  0.20,  0.20,  0.20,  0.20
! <Site:GroundReflectance:SnowModifier>, Normal, Daylighting {dimensionless}
 Site:GroundReflectance:SnowModifier,   1.000,   1.000
! <Site:GroundReflectance:Snow>,Jan{dimensionless},Feb{dimensionless},Mar{dimensionless},Apr{dimensionless},May{dimensionless},Jun{dimensionless},Jul{dimensionless},Aug{dimensionless},Sep{dimensionless},Oct{dimensionless},Nov{dimensionless},Dec{dimensionless}
 Site:GroundReflectance:Snow,  0.20,  0.20,  0.20,  0.20,  0.20,  0.20,  0.20,  0.20,  0.20,  0.20,  0.20,  0.20
! <Site:GroundReflectance:Snow:Daylighting>,Jan{dimensionless},Feb{dimensionless},Mar{dimensionless},Apr{dimensionless},May{dimensionless},Jun{dimensionless},Jul{dimensionless},Aug{dimensionless},Sep{dimensionless},Oct{dimensionless},Nov{dimensionless},Dec{dimensionless}
 Site:GroundReflectance:Snow:Daylighting,  0.20,  0.20,  0.20,  0.20,  0.20,  0.20,  0.20,  0.20,  0.20,  0.20,  0.20,  0.20
! <Environment:Weather Station>,Wind Sensor Height Above Ground {m},Wind Speed Profile Exponent {},Wind Speed Profile Boundary Layer Thickness {m},Air Temperature Sensor Height Above Ground {m},Wind Speed Modifier Coefficient-Internal,Temperature Modifier Coefficient-Internal
Environment:Weather Station,10.000,0.140,270.000,1.500,1.586,9.750E-003
! <Site:Location>, Location Name, Latitude {N+/S- Deg}, Longitude {E+/W- Deg},  Time Zone Number {GMT+/-}, Elevation {m},  Standard Pressure at Elevation {Pa}, Standard RhoAir at Elevation
Site:Location,Chicago Ohare Intl Ap IL USA TMY3 WMO#=725300,41.98,-87.92,-6.00,201.00,98934,1.1759
! <Site Water Mains Temperature Information>,Calculation Method{},Water Mains Temperature Schedule Name{},Annual Average Outdoor Air Temperature{C},Maximum Difference In Monthly Average Outdoor Air Temperatures{deltaC},Fixed Default Water Mains Temperature{C}
Site Water Mains Temperature Information,FixedDefault,NA,NA,NA,10.0
! <Building Information>, Building Name,North Axis {deg},Terrain,  Loads Convergence Tolerance Value,Temperature Convergence Tolerance Value,  Solar Distribution,Maximum Number of Warmup Days,Minimum Number of Warmup Days
 Building Information,Professional Building,0.000,Suburbs,4.00000E-002,0.20000,FullInteriorAndExterior,15,6
! <Inside Convection Algorithm>, Algorithm {Simple | TARP | CeilingDiffuser | AdaptiveConvectionAlgorithm}
Inside Convection Algorithm,TARP
! <Outside Convection Algorithm>, Algorithm {SimpleCombined | TARP | MoWitt | DOE-2 | AdaptiveConvectionAlgorithm}
Outside Convection Algorithm,DOE-2
! <Sky Radiance Distribution>, Value {Anisotropic}
Sky Radiance Distribution,Anisotropic
! <Zone Air Solution Algorithm>, Algorithm {ThirdOrderBackwardDifference | AnalyticalSolution | EulerMethod}, Space Heat Balance Sizing, Space Heat Balance Simulation
 Zone Air Solution Algorithm, ThirdOrderBackwardDifference, No, No
! <Zone Air Carbon Dioxide Balance Simulation>, Simulation {Yes/No}, Carbon Dioxide Concentration
 Zone Air Carbon Dioxide Balance Simulation, No,N/A
! <Zone Air Generic Contaminant Balance Simulation>, Simulation {Yes/No}, Generic Contaminant Concentration
 Zone Air Generic Contaminant Balance Simulation, No,N/A
! <Zone Air Mass Flow Balance Simulation>, Enforce Mass Balance, Adjust Zone Mixing and Return {AdjustMixingOnly | AdjustReturnOnly | AdjustMixingThenReturn | AdjustReturnThenMixing | None}, Adjust Zone Infiltration {AddInfiltration | AdjustInfiltration | None}, Infiltration Zones {MixingSourceZonesOnly | AllZones}
 Zone Air Mass Flow Balance Simulation, No,N/A,N/A,N/A
! <HVACSystemRootFindingAlgorithm>, Value {RegulaFalsi | Bisection | BisectionThenRegulaFalsi | RegulaFalsiThenBisection}
 HVACSystemRootFindingAlgorithm, RegulaFalsi
! <Environment:Site Atmospheric Variation>,Wind Speed Profile Exponent {},Wind Speed Profile Boundary Layer Thickness {m},Air Temperature Gradient Coefficient {K/m}
Environment:Site Atmospheric Variation,0.220,370.000,6.500000E-003
! <Shadowing/Sun Position Calculations Annual Simulations>, Shading Calculation Method, Shading Calculation Update Frequency Method, Shading Calculation Update Frequency {days}, Maximum Figures in Shadow Overlap Calculations {}, Polygon Clipping Algorithm, Pixel Counting Resolution, Sky Diffuse Modeling Algorithm, Output External Shading Calculation Results, Disable Self-Shading Within Shading Zone Groups, Disable Self-Shading From Shading Zone Groups to Other Zones
Shadowing/Sun Position Calculations Annual Simulations,PolygonClipping,Periodic,20,15000,SutherlandHodgman,512,SimpleSkyDiffuseModeling,No,No,No
! <Surface Geometry>,Starting Corner,Vertex Input Direction,Coordinate System,Daylight Reference Point Coordinate System,Rectangular (Simple) Surface Coordinate System
 Surface Geometry,UpperLeftCorner,Counterclockwise,RelativeCoordinateSystem,RelativeCoordinateSystem,RelativeToZoneOrigin
! <Surface Heat Transfer Algorithm>, Value {CTF - ConductionTransferFunction | EMPD - MoisturePenetrationDepthConductionTransferFunction | CondFD - ConductionFiniteDifference | HAMT - CombinedHeatAndMoistureFiniteElement} - Description,Inside Surface Max Temperature Limit{C}, Surface Convection Coefficient Lower Limit {W/m2-K}, Surface Convection Coefficient Upper Limit {W/m2-K}
Surface Heat Transfer Algorithm, CTF - ConductionTransferFunction,200,0.10,1000.0
! <Shading Summary>, Number of Fixed Detached Shades, Number of Building Detached Shades, Number of Attached Shades
 Shading Summary,0,0,0
! <Zone Summary>, Number of Zones, Number of Zone Surfaces, Number of SubSurfaces
 Zone Summary,29,319,116
! <Zone Information>,Zone Name,North Axis {deg},Origin X-Coordinate {m},Origin Y-Coordinate {m},Origin Z-Coordinate {m},Centroid X-Coordinate {m},Centroid Y-Coordinate {m},Centroid Z-Coordinate {m},Type,Zone Multiplier,Zone List Multiplier,Minimum X {m},Maximum X {m},Minimum Y {m},Maximum Y {m},Minimum Z {m},Maximum Z {m},Ceiling Height {m},Volume {m3},Zone Inside Convection Algorithm {Simple-Detailed-CeilingDiffuser-TrombeWall},Zone Outside Convection Algorithm {Simple-Detailed-Tarp-MoWitt-DOE-2-BLAST}, Floor Area {m2},Exterior Gross Wall Area {m2},Exterior Net Wall Area {m2},Exterior Window Area {m2}, Number of Surfaces, Number of SubSurfaces, Number of Shading SubSurfaces,  Part of Total Building Area
 Zone Information, LOBBY_0,0.0,0.00,0.00,0.00,-163.13,-48.65,1.50,1,1,1,-167.45,-158.81,-56.32,-40.99,0.00,3.00,3.00,389.99,TARP,DOE-2,130.00,142.59,99.68,42.91,6,4,0,Yes
 Zone Information, CONFERENCE_0,0.0,0.00,0.00,0.00,-123.21,-45.76,1.50,1,1,1,-127.10,-119.31,-52.04,-39.48,0.00,3.00,3.00,287.24,TARP,DOE-2,95.75,120.85,84.48,36.37,6,4,0,Yes
 Zone Information, BREAK_ROOM_0,0.0,0.00,0.00,0.00,-149.50,-79.13,1.50,1,1,1,-152.41,-146.58,-83.35,-74.90,0.00,3.00,3.00,143.29,TARP,DOE-2,47.76,84.42,59.01,25.41,6,4,0,Yes
 Zone Information, MECHANICAL_0,0.0,0.00,0.00,0.00,-103.25,-78.34,1.50,1,1,1,-105.45,-101.05,-82.40,-74.28,0.00,3.00,3.00,103.47,TARP,DOE-2,34.49,73.92,51.68,22.25,6,4,0,Yes
 Zone Information, OFFICE_OPEN_0,0.0,0.00,0.00,0.00,-134.97,-80.13,1.50,1,1,1,-141.29,-128.66,-89.44,-70.83,0.00,3.00,3.00,695.81,TARP,DOE-2,231.94,186.24,130.19,56.05,6,4,0,Yes
 Zone Information, OFFICE_PRIVATE_0,0.0,0.00,0.00,0.00,-170.26,-40.14,1.50,1,1,1,-172.53,-167.98,-44.11,-36.17,0.00,3.00,3.00,104.65,TARP,DOE-2,34.88,73.74,51.55,22.19,6,4,0,Yes
 Zone Information, STORAGE_0,0.0,0.00,0.00,0.00,-102.24,-6.49,1.50,1,1,1,-103.79,-100.69,-8.51,-4.48,0.00,3.00,3.00,35.35,TARP,DOE-2,11.78,41.58,29.07,12.51,6,4,0,Yes
 Zone Information, LOBBY_1,0.0,0.00,0.00,0.00,-155.95,-32.91,4.50,1,1,1,-159.61,-152.29,-39.82,-26.00,3.00,6.00,3.00,297.27,TARP,DOE-2,99.09,125.66,87.84,37.82,6,4,0,Yes
 Zone Information, CONFERENCE_1,0.0,0.00,0.00,0.00,-163.63,-87.66,4.50,1,1,1,-167.04,-160.23,-93.45,-81.87,3.00,6.00,3.00,231.32,TARP,DOE-2,77.11,109.18,76.32,32.86,6,4,0,Yes
 Zone Information, BREAK_ROOM_1,0.0,0.00,0.00,0.00,-135.73,-49.78,4.50,1,1,1,-138.68,-132.79,-54.58,-44.98,3.00,6.00,3.00,165.05,TARP,DOE-2,55.02,91.75,64.14,27.61,6,4,0,Yes
 Zone Information, MECHANICAL_1,0.0,0.00,0.00,0.00,-103.76,-82.07,4.50,1,1,1,-107.73,-99.80,-87.88,-76.26,3.00,6.00,3.00,270.65,TARP,DOE-2,90.22,116.12,81.17,34.95,6,4,0,Yes
 Zone Information, STORAGE_1,0.0,0.00,0.00,0.00,-175.52,-19.50,4.50,1,1,1,-177.77,-173.26,-22.50,-16.50,3.00,6.00,3.00,77.93,TARP,DOE-2,25.98,61.81,43.20,18.60,6,4,0,Yes
 Zone Information, LOBBY_2,0.0,0.00,0.00,0.00,-145.16,-47.87,7.50,1,1,1,-150.53,-139.79,-55.85,-39.90,6.00,9.00,3.00,506.12,TARP,DOE-2,168.71,158.96,111.12,47.84,6,4,0,Yes
 Zone Information, CONFERENCE_2,0.0,0.00,0.00,0.00,-183.25,-7.30,7.50,1,1,1,-186.67,-179.84,-12.81,-1.79,6.00,9.00,3.00,220.78,TARP,DOE-2,73.59,105.96,74.07,31.89,6,4,0,Yes
 Zone Information, MECHANICAL_2,0.0,0.00,0.00,0.00,-181.03,-15.38,7.50,1,1,1,-185.89,-176.17,-20.62,-10.14,6.00,9.00,3.00,299.36,TARP,DOE-2,99.79,119.96,83.86,36.10,6,4,0,Yes
 Zone Information, OFFICE_OPEN_2,0.0,0.00,0.00,0.00,-155.63,-97.85,7.50,1,1,1,-161.68,-149.58,-105.15,-90.55,6.00,9.00,3.00,521.99,TARP,DOE-2,174.00,159.00,111.15,47.85,6,4,0,Yes
 Zone Information, OFFICE_PRIVATE_2,0.0,0.00,0.00,0.00,-100.59,-52.93,7.50,1,1,1,-103.05,-98.13,-57.05,-48.82,6.00,9.00,3.00,117.67,TARP,DOE-2,39.22,77.73,54.34,23.39,6,4,0,Yes
 Zone Information, STORAGE_2,0.0,0.00,0.00,0.00,-168.20,-71.06,7.50,1,1,1,-170.69,-165.71,-75.58,-66.54,6.00,9.00,3.00,130.81,TARP,DOE-2,43.60,82.91,57.96,24.95,6,4,0,Yes
 Zone Information, LOBBY_3,0.0,0.00,0.00,0.00,-177.31,-49.73,10.50,1,1,1,-183.06,-171.56,-57.87,-41.59,9.00,12.00,3.00,553.51,TARP,DOE-2,184.50,165.50,115.69,49.81,6,4,0,Yes
 Zone Information, CONFERENCE_3,0.0,0.00,0.00,0.00,-138.18,-72.91,10.50,1,1,1,-141.94,-134.42,-79.51,-66.32,9.00,12.00,3.00,291.18,TARP,DOE-2,97.06,123.03,86.01,37.03,6,4,0,Yes
 Zone Information, BREAK_ROOM_3,0.0,0.00,0.00,0.00,-122.94,-112.10,10.50,1,1,1,-125.54,-120.34,-115.84,-108.35,9.00,12.00,3.00,113.21,TARP,DOE-2,37.74,74.98,52.41,22.57,6,4,0,Yes
 Zone Information, OFFICE_OPEN_3,0.0,0.00,0.00,0.00,-114.95,-21.63,10.50,1,1,1,-119.00,-110.91,-28.32,-14.93,9.00,12.00,3.00,318.52,TARP,DOE-2,106.17,127.68,89.25,38.43,6,4,0,Yes
 Zone Information, OFFICE_PRIVATE_3,0.0,0.00,0.00,0.00,-106.45,-97.74,10.50,1,1,1,-108.60,-104.31,-101.13,-94.35,9.00,12.00,3.00,84.06,TARP,DOE-2,28.02,65.25,45.61,19.64,6,4,0,Yes
 Zone Information, LOBBY_4,0.0,0.00,0.00,0.00,-177.48,-29.20,13.50,1,1,1,-182.48,-172.47,-35.19,-23.22,12.00,15.00,3.00,352.74,TARP,DOE-2,117.58,130.65,91.33,39.32,6,4,0,Yes
 Zone Information, BREAK_ROOM_4,0.0,0.00,0.00,0.00,-177.10,-114.92,13.50,1,1,1,-180.67,-173.52,-119.71,-110.13,12.00,15.00,3.00,200.38,TARP,DOE-2,66.79,99.15,69.31,29.84,6,4,0,Yes
 Zone Information, MECHANICAL_4,0.0,0.00,0.00,0.00,-132.18,-70.22,13.50,1,1,1,-135.57,-128.79,-76.79,-63.66,12.00,15.00,3.00,261.02,TARP,DOE-2,87.01,118.25,82.66,35.59,6,4,0,Yes
 Zone Information, OFFICE_OPEN_4,0.0,0.00,0.00,0.00,-155.01,-23.19,13.50,1,1,1,-161.25,-148.76,-30.27,-16.12,12.00,15.00,3.00,522.26,TARP,DOE-2,174.09,158.64,110.90,47.75,6,4,0,Yes
 Zone Information, OFFICE_PRIVATE_4,0.0,0.00,0.00,0.00,-105.72,-49.00,13.50,1,1,1,-107.90,-103.54,-51.60,-46.40,12.00,15.00,3.00,65.16,TARP,DOE-2,21.72,56.15,39.25,16.90,6,4,0,Yes
 Zone Information, STORAGE_4,0.0,0.00,0.00,0.00,-102.85,-94.36,13.50,1,1,1,-104.77,-100.93,-97.82,-90.90,12.00,15.00,3.00,76.40,TARP,DOE-2,25.47,63.31,44.26,19.05,6,4,0,Yes
! <Zone Internal Gains Nominal>,Zone Name, Floor Area {m2},# Occupants,Area per Occupant {m2/person},Occupant per Area {person/m2},Interior Lighting {W/m2},Electric Load {W/m2},Gas Load {W/m2},Other Load {W/m2},Hot Water Eq {W/m2},Steam Equipment {W/m2},Sum Loads per Area {W/m2},Outdoor Controlled Baseboard Heat
 Zone Internal Gains Nominal, LOBBY_0,130.00,6.0,21.666,4.616E-002,12.900,3.200,0.000,0.000,0.000,0.000,16.100,No
 Zone Internal Gains Nominal, CONFERENCE_0,95.75,19.0,5.039,0.198,10.800,8.100,0.000,0.000,0.000,0.000,18.900,No
 Zone Internal Gains Nominal, BREAK_ROOM_0,47.76,4.0,11.941,8.375E-002,8.100,15.000,0.000,0.000,0.000,0.000,23.100,No
 Zone Internal Gains Nominal, MECHANICAL_0,34.49,1.0,34.489,2.900E-002,5.400,0.000,0.000,0.000,0.000,0.000,5.400,No
 Zone Internal Gains Nominal, OFFICE_OPEN_0,231.94,11.0,21.085,4.743E-002,10.800,8.100,0.000,0.000,0.000,0.000,18.900,No
 Zone Internal Gains Nominal, OFFICE_PRIVATE_0,34.88,1.0,34.883,2.867E-002,10.800,8.100,0.000,0.000,0.000,0.000,18.900,No
 Zone Internal Gains Nominal, STORAGE_0,11.78,1.0,11.785,8.485E-002,5.400,1.100,0.000,0.000,0.000,0.000,6.500,No
 Zone Internal Gains Nominal, LOBBY_1,99.09,4.0,24.773,4.037E-002,12.900,3.200,0.000,0.000,0.000,0.000,16.100,No
 Zone Internal Gains Nominal, CONFERENCE_1,77.11,15.0,5.140,0.195,10.800,8.100,0.000,0.000,0.000,0.000,18.900,No
 Zone Internal Gains Nominal, BREAK_ROOM_1,55.02,5.0,11.003,9.088E-002,8.100,15.000,0.000,0.000,0.000,0.000,23.100,No
 Zone Internal Gains Nominal, MECHANICAL_1,90.22,1.0,90.218,1.108E-002,5.400,0.000,0.000,0.000,0.000,0.000,5.400,No
 Zone Internal Gains Nominal, STORAGE_1,25.98,1.0,25.975,3.850E-002,5.400,1.100,0.000,0.000,0.000,0.000,6.500,No
 Zone Internal Gains Nominal, LOBBY_2,168.71,8.0,21.088,4.742E-002,12.900,3.200,0.000,0.000,0.000,0.000,16.100,No
 Zone Internal Gains Nominal, CONFERENCE_2,73.59,14.0,5.257,0.190,10.800,8.100,0.000,0.000,0.000,0.000,18.900,No
 Zone Internal Gains Nominal, MECHANICAL_2,99.79,1.0,99.788,1.002E-002,5.400,0.000,0.000,0.000,0.000,0.000,5.400,No
 Zone Internal Gains Nominal, OFFICE_OPEN_2,174.00,8.0,21.750,4.598E-002,10.800,8.100,0.000,0.000,0.000,0.000,18.900,No
 Zone Internal Gains Nominal, OFFICE_PRIVATE_2,39.22,1.0,39.222,2.550E-002,10.800,8.100,0.000,0.000,0.000,0.000,18.900,No
 Zone Internal Gains Nominal, STORAGE_2,43.60,1.0,43.604,2.293E-002,5.400,1.100,0.000,0.000,0.000,0.000,6.500,No
 Zone Internal Gains Nominal, LOBBY_3,184.50,9.0,20.500,4.878E-002,12.900,3.200,0.000,0.000,0.000,0.000,16.100,No
 Zone Internal Gains Nominal, CONFERENCE_3,97.06,19.0,5.108,0.196,10.800,8.100,0.000,0.000,0.000,0.000,18.900,No
 Zone Internal Gains Nominal, BREAK_ROOM_3,37.74,3.0,12.579,7.950E-002,8.100,15.000,0.000,0.000,0.000,0.000,23.100,No
 Zone Internal Gains Nominal, OFFICE_OPEN_3,106.17,5.0,21.235,4.709E-002,10.800,8.100,0.000,0.000,0.000,0.000,18.900,No
 Zone Internal Gains Nominal, OFFICE_PRIVATE_3,28.02,1.0,28.019,3.569E-002,10.800,8.100,0.000,0.000,0.000,0.000,18.900,No
 Zone Internal Gains Nominal, LOBBY_4,117.58,5.0,23.516,4.252E-002,12.900,3.200,0.000,0.000,0.000,0.000,16.100,No
 Zone Internal Gains Nominal, BREAK_ROOM_4,66.79,6.0,11.132,8.983E-002,8.100,15.000,0.000,0.000,0.000,0.000,23.100,No
 Zone Internal Gains Nominal, MECHANICAL_4,87.01,1.0,87.006,1.149E-002,5.400,0.000,0.000,0.000,0.000,0.000,5.400,No
 Zone Internal Gains Nominal, OFFICE_OPEN_4,174.09,8.0,21.761,4.595E-002,10.800,8.100,0.000,0.000,0.000,0.000,18.900,No
 Zone Internal Gains Nominal, OFFICE_PRIVATE_4,21.72,1.0,21.721,4.604E-002,10.800,8.100,0.000,0.000,0.000,0.000,18.900,No
 Zone Internal Gains Nominal, STORAGE_4,25.47,1.0,25.468,3.926E-002,5.400,1.100,0.000,0.000,0.000,0.000,6.500,No
! <People Internal Gains Nominal>,Name,Schedule Name,Zone Name,Zone Floor Area {m2},# Zone Occupants,Number of People {},People/Floor Area {person/m2},Floor Area per person {m2/person},Fraction Radiant,Fraction Convected,Sensible Fraction Calculation,Activity level,ASHRAE 55 Warnings,Carbon Dioxide Generation Rate,Minimum Number of People for All Day Types,Maximum Number of People for All Day Types,Minimum Number of People for Weekdays, Maximum Number of People for Weekdays, Minimum Number of People for Weekends/Holidays, Maximum Number of People for Weekends /Holidays,Minimum Number of People for Summer Design Days, Maximum Number of People for Summer Design Days,Minimum Number of People for Winter Design Days, Maximum Number of People for Winter Design Days
 People Internal Gains Nominal, LOBBY_0_PEOPLE,LOBBY_OCCUPANCY,LOBBY_0,130.00,6.0,6.0,4.616E-002,21.666,0.300,0.700,0.100,LOBBY_ACTIVITY,No,3.8200E-008,1.2,1.2,1.2,1.2,1.2,1.2,1.2,1.2,1.2,1.2,
 People Internal Gains Nominal, CONFERENCE_0_PEOPLE,CONFERENCE_OCCUPANCY,CONFERENCE_0,95.75,19.0,19.0,0.198,5.039,0.300,0.700,0.100,CONFERENCE_ACTIVITY,No,3.8200E-008,0.0,19.0,0.0,19.0,0.0,1.9,0.0,0.0,0.0,0.0,
 People Internal Gains Nominal, BREAK_ROOM_0_PEOPLE,BREAK_ROOM_OCCUPANCY,BREAK_ROOM_0,47.76,4.0,4.0,8.375E-002,11.941,0.300,0.700,0.100,BREAK_ROOM_ACTIVITY,No,3.8200E-008,0.8,0.8,0.8,0.8,0.8,0.8,0.8,0.8,0.8,0.8,
 People Internal Gains Nominal, MECHANICAL_0_PEOPLE,MECHANICAL_OCCUPANCY,MECHANICAL_0,34.49,1.0,1.0,2.900E-002,34.489,0.300,0.700,0.100,MECHANICAL_ACTIVITY,No,3.8200E-008,0.2,0.2,0.2,0.2,0.2,0.2,0.2,0.2,0.2,0.2,
 People Internal Gains Nominal, OFFICE_OPEN_0_PEOPLE,OFFICE_OPEN_OCCUPANCY,OFFICE_OPEN_0,231.94,11.0,11.0,4.743E-002,21.085,0.300,0.700,0.100,OFFICE_OPEN_ACTIVITY,No,3.8200E-008,0.0,11.0,0.0,11.0,0.0,1.1,0.0,0.0,0.0,0.0,
 People Internal Gains Nominal, OFFICE_PRIVATE_0_PEOPLE,OFFICE_OPEN_OCCUPANCY,OFFICE_PRIVATE_0,34.88,1.0,1.0,2.867E-002,34.883,0.300,0.700,0.100,OFFICE_OPEN_ACTIVITY,No,3.8200E-008,0.0,1.0,0.0,1.0,0.0,0.1,0.0,0.0,0.0,0.0,
 People Internal Gains Nominal, STORAGE_0_PEOPLE,STORAGE_OCCUPANCY,STORAGE_0,11.78,1.0,1.0,8.485E-002,11.785,0.300,0.700,0.100,STORAGE_ACTIVITY,No,3.8200E-008,0.2,0.2,0.2,0.2,0.2,0.2,0.2,0.2,0.2,0.2,
 People Internal Gains Nominal, LOBBY_1_PEOPLE,LOBBY_OCCUPANCY,LOBBY_1,99.09,4.0,4.0,4.037E-002,24.773,0.300,0.700,0.100,LOBBY_ACTIVITY,No,3.8200E-008,0.8,0.8,0.8,0.8,0.8,0.8,0.8,0.8,0.8,0.8,
 People Internal Gains Nominal, CONFERENCE_1_PEOPLE,CONFERENCE_OCCUPANCY,CONFERENCE_1,77.11,15.0,15.0,0.195,5.140,0.300,0.700,0.100,CONFERENCE_ACTIVITY,No,3.8200E-008,0.0,15.0,0.0,15.0,0.0,1.5,0.0,0.0,0.0,0.0,
 People Internal Gains Nominal, BREAK_ROOM_1_PEOPLE,BREAK_ROOM_OCCUPANCY,BREAK_ROOM_1,55.02,5.0,5.0,9.088E-002,11.003,0.300,0.700,0.100,BREAK_ROOM_ACTIVITY,No,3.8200E-008,1.0,1.0,1.0,1.0,1.0,1.0,1.0,1.0,1.0,1.0,
 People Internal Gains Nominal, MECHANICAL_1_PEOPLE,MECHANICAL_OCCUPANCY,MECHANICAL_1,90.22,1.0,1.0,1.108E-002,90.218,0.300,0.700,0.100,MECHANICAL_ACTIVITY,No,3.8200E-008,0.2,0.2,0.2,0.2,0.2,0.2,0.2,0.2,0.2,0.2,
 People Internal Gains Nominal, STORAGE_1_PEOPLE,STORAGE_OCCUPANCY,STORAGE_1,25.98,1.0,1.0,3.850E-002,25.975,0.300,0.700,0.100,STORAGE_ACTIVITY,No,3.8200E-008,0.2,0.2,0.2,0.2,0.2,0.2,0.2,0.2,0.2,0.2,
 People Internal Gains Nominal, LOBBY_2_PEOPLE,LOBBY_OCCUPANCY,LOBBY_2,168.71,8.0,8.0,4.742E-002,21.088,0.300,0.700,0.100,LOBBY_ACTIVITY,No,3.8200E-008,1.6,1.6,1.6,1.6,1.6,1.6,1.6,1.6,1.6,1.6,
 People Internal Gains Nominal, CONFERENCE_2_PEOPLE,CONFERENCE_OCCUPANCY,CONFERENCE_2,73.59,14.0,14.0,0.190,5.257,0.300,0.700,0.100,CONFERENCE_ACTIVITY,No,3.8200E-008,0.0,14.0,0.0,14.0,0.0,1.4,0.0,0.0,0.0,0.0,
 People Internal Gains Nominal, MECHANICAL_2_PEOPLE,MECHANICAL_OCCUPANCY,MECHANICAL_2,99.79,1.0,1.0,1.002E-002,99.788,0.300,0.700,0.100,MECHANICAL_ACTIVITY,No,3.8200E-008,0.2,0.2,0.2,0.2,0.2,0.2,0.2,0.2,0.2,0.2,
 People Internal Gains Nominal, OFFICE_OPEN_2_PEOPLE,OFFICE_OPEN_OCCUPANCY,OFFICE_OPEN_2,174.00,8.0,8.0,4.598E-002,21.750,0.300,0.700,0.100,OFFICE_OPEN_ACTIVITY,No,3.8200E-008,0.0,8.0,0.0,8.0,0.0,0.8,0.0,0.0,0.0,0.0,
 People Internal Gains Nominal, OFFICE_PRIVATE_2_PEOPLE,OFFICE_OPEN_OCCUPANCY,OFFICE_PRIVATE_2,39.22,1.0,1.0,2.550E-002,39.222,0.300,0.700,0.100,OFFICE_OPEN_ACTIVITY,No,3.8200E-008,0.0,1.0,0.0,1.0,0.0,0.1,0.0,0.0,0.0,0.0,
 People Internal Gains Nominal, STORAGE_2_PEOPLE,STORAGE_OCCUPANCY,STORAGE_2,43.60,1.0,1.0,2.293E-002,43.604,0.300,0.700,0.100,STORAGE_ACTIVITY,No,3.8200E-008,0.2,0.2,0.2,0.2,0.2,0.2,0.2,0.2,0.2,0.2,
 People Internal Gains Nominal, LOBBY_3_PEOPLE,LOBBY_OCCUPANCY,LOBBY_3,184.50,9.0,9.0,4.878E-002,20.500,0.300,0.700,0.100,LOBBY_ACTIVITY,No,3.8200E-008,1.8,1.8,1.8,1.8,1.8,1.8,1.8,1.8,1.8,1.8,
 People Internal Gains Nominal, CONFERENCE_3_PEOPLE,CONFERENCE_OCCUPANCY,CONFERENCE_3,97.06,19.0,19.0,0.196,5.108,0.300,0.700,0.100,CONFERENCE_ACTIVITY,No,3.8200E-008,0.0,19.0,0.0,19.0,0.0,1.9,0.0,0.0,0.0,0.0,
 People Internal Gains Nominal, BREAK_ROOM_3_PEOPLE,BREAK_ROOM_OCCUPANCY,BREAK_ROOM_3,37.74,3.0,3.0,7.950E-002,12.579,0.300,0.700,0.100,BREAK_ROOM_ACTIVITY,No,3.8200E-008,0.6,0.6,0.6,0.6,0.6,0.6,0.6,0.6,0.6,0.6,
 People Internal Gains Nominal, OFFICE_OPEN_3_PEOPLE,OFFICE_OPEN_OCCUPANCY,OFFICE_OPEN_3,106.17,5.0,5.0,4.709E-002,21.235,0.300,0.700,0.100,OFFICE_OPEN_ACTIVITY,No,3.8200E-008,0.0,5.0,0.0,5.0,0.0,0.5,0.0,0.0,0.0,0.0,
 People Internal Gains Nominal, OFFICE_PRIVATE_3_PEOPLE,OFFICE_OPEN_OCCUPANCY,OFFICE_PRIVATE_3,28.02,1.0,1.0,3.569E-002,28.019,0.300,0.700,0.100,OFFICE_OPEN_ACTIVITY,No,3.8200E-008,0.0,1.0,0.0,1.0,0.0,0.1,0.0,0.0,0.0,0.0,
 People Internal Gains Nominal, LOBBY_4_PEOPLE,LOBBY_OCCUPANCY,LOBBY_4,117.58,5.0,5.0,4.252E-002,23.516,0.300,0.700,0.100,LOBBY_ACTIVITY,No,3.8200E-008,1.0,1.0,1.0,1.0,1.0,1.0,1.0,1.0,1.0,1.0,
 People Internal Gains Nominal, BREAK_ROOM_4_PEOPLE,BREAK_ROOM_OCCUPANCY,BREAK_ROOM_4,66.79,6.0,6.0,8.983E-002,11.132,0.300,0.700,0.100,BREAK_ROOM_ACTIVITY,No,3.8200E-008,1.2,1.2,1.2,1.2,1.2,1.2,1.2,1.2,1.2,1.2,
 People Internal Gains Nominal, MECHANICAL_4_PEOPLE,MECHANICAL_OCCUPANCY,MECHANICAL_4,87.01,1.0,1.0,1.149E-002,87.006,0.300,0.700,0.100,MECHANICAL_ACTIVITY,No,3.8200E-008,0.2,0.2,0.2,0.2,0.2,0.2,0.2,0.2,0.2,0.2,
 People Internal Gains Nominal, OFFICE_OPEN_4_PEOPLE,OFFICE_OPEN_OCCUPANCY,OFFICE_OPEN_4,174.09,8.0,8.0,4.595E-002,21.761,0.300,0.700,0.100,OFFICE_OPEN_ACTIVITY,No,3.8200E-008,0.0,8.0,0.0,8.0,0.0,0.8,0.0,0.0,0.0,0.0,
 People Internal Gains Nominal, OFFICE_PRIVATE_4_PEOPLE,OFFICE_OPEN_OCCUPANCY,OFFICE_PRIVATE_4,21.72,1.0,1.0,4.604E-002,21.721,0.300,0.700,0.100,OFFICE_OPEN_ACTIVITY,No,3.8200E-008,0.0,1.0,0.0,1.0,0.0,0.1,0.0,0.0,0.0,0.0,
 People Internal Gains Nominal, STORAGE_4_PEOPLE,STORAGE_OCCUPANCY,STORAGE_4,25.47,1.0,1.0,3.926E-002,25.468,0.300,0.700,0.100,STORAGE_ACTIVITY,No,3.8200E-008,0.2,0.2,0.2,0.2,0.2,0.2,0.2,0.2,0.2,0.2,
! <Lights Internal Gains Nominal>,Name,Schedule Name,Zone Name,Zone Floor Area {m2},# Zone Occupants,Lighting Level {W},Lights/Floor Area {W/m2},Lights per person {W/person},Fraction Return Air,Fraction Radiant,Fraction Short Wave,Fraction Convected,Fraction Replaceable,End-Use, Minimum Lighting Level for All Day Types {W},Maximum Lighting Level for All Day Types {W},Minimum Lighting Level for Weekdays {W}, Maximum Lighting Level for Weekdays {W},Minimum Lighting Level for Weekends/Holidays {W}, Maximum Lighting Level for Weekends /Holidays {W},Minimum Lighting Level for Summer Design Days {W}, Maximum Lighting Level for Summer Design Days {W},Minimum Lighting Level for Winter Design Days {W}, Maximum Lighting Level for Winter Design Days {W}
 Lights Internal Gains Nominal, LOBBY_0_LIGHTS,LOBBY_LIGHTING,LOBBY_0,130.00,6.0,1676.936,12.900,279.489,0.000,0.300,0.200,0.500,1.000,General,0.000,1676.936,167.694,1676.9,0.000,335.387,0.000,0.000,0.000,0.000
 Lights Internal Gains Nominal, CONFERENCE_0_LIGHTS,CONFERENCE_LIGHTING,CONFERENCE_0,95.75,19.0,1034.055,10.800,54.424,0.000,0.300,0.200,0.500,1.000,General,0.000,1034.055,103.405,1034.1,0.000,206.811,0.000,0.000,0.000,0.000
 Lights Internal Gains Nominal, BREAK_ROOM_0_LIGHTS,BREAK_ROOM_LIGHTING,BREAK_ROOM_0,47.76,4.0,386.877,8.100,96.719,0.000,0.300,0.200,0.500,1.000,General,0.000,386.877,38.688,386.9,0.000,77.375,0.000,0.000,0.000,0.000
 Lights Internal Gains Nominal, MECHANICAL_0_LIGHTS,MECHANICAL_LIGHTING,MECHANICAL_0,34.49,1.0,186.238,5.400,186.238,0.000,0.300,0.200,0.500,1.000,General,0.000,186.238,18.624,186.2,0.000,37.248,0.000,0.000,0.000,0.000
 Lights Internal Gains Nominal, OFFICE_OPEN_0_LIGHTS,OFFICE_OPEN_LIGHTING,OFFICE_OPEN_0,231.94,11.0,2504.910,10.800,227.719,0.000,0.300,0.200,0.500,1.000,General,0.000,2504.910,250.491,2504.9,0.000,500.982,0.000,0.000,0.000,0.000
 Lights Internal Gains Nominal, OFFICE_PRIVATE_0_LIGHTS,OFFICE_OPEN_LIGHTING,OFFICE_PRIVATE_0,34.88,1.0,376.738,10.800,376.738,0.000,0.300,0.200,0.500,1.000,General,0.000,376.738,37.674,376.7,0.000,75.348,0.000,0.000,0.000,0.000
 Lights Internal Gains Nominal, STORAGE_0_LIGHTS,STORAGE_LIGHTING,STORAGE_0,11.78,1.0,63.638,5.400,63.638,0.000,0.300,0.200,0.500,1.000,General,0.000,63.638,6.364,63.6,0.000,12.728,0.000,0.000,0.000,0.000
 Lights Internal Gains Nominal, LOBBY_1_LIGHTS,LOBBY_LIGHTING,LOBBY_1,99.09,4.0,1278.275,12.900,319.569,0.000,0.300,0.200,0.500,1.000,General,0.000,1278.275,127.828,1278.3,0.000,255.655,0.000,0.000,0.000,0.000
 Lights Internal Gains Nominal, CONFERENCE_1_LIGHTS,CONFERENCE_LIGHTING,CONFERENCE_1,77.11,15.0,832.750,10.800,55.517,0.000,0.300,0.200,0.500,1.000,General,0.000,832.750,83.275,832.7,0.000,166.550,0.000,0.000,0.000,0.000
 Lights Internal Gains Nominal, BREAK_ROOM_1_LIGHTS,BREAK_ROOM_LIGHTING,BREAK_ROOM_1,55.02,5.0,445.629,8.100,89.126,0.000,0.300,0.200,0.500,1.000,General,0.000,445.629,44.563,445.6,0.000,89.126,0.000,0.000,0.000,0.000
 Lights Internal Gains Nominal, MECHANICAL_1_LIGHTS,MECHANICAL_LIGHTING,MECHANICAL_1,90.22,1.0,487.179,5.400,487.179,0.000,0.300,0.200,0.500,1.000,General,0.000,487.179,48.718,487.2,0.000,97.436,0.000,0.000,0.000,0.000
 Lights Internal Gains Nominal, STORAGE_1_LIGHTS,STORAGE_LIGHTING,STORAGE_1,25.98,1.0,140.265,5.400,140.265,0.000,0.300,0.200,0.500,1.000,General,0.000,140.265,14.027,140.3,0.000,28.053,0.000,0.000,0.000,0.000
 Lights Internal Gains Nominal, LOBBY_2_LIGHTS,LOBBY_LIGHTING,LOBBY_2,168.71,8.0,2176.318,12.900,272.040,0.000,0.300,0.200,0.500,1.000,General,0.000,2176.318,217.632,2176.3,0.000,435.264,0.000,0.000,0.000,0.000
 Lights Internal Gains Nominal, CONFERENCE_2_LIGHTS,CONFERENCE_LIGHTING,CONFERENCE_2,73.59,14.0,794.817,10.800,56.773,0.000,0.300,0.200,0.500,1.000,General,0.000,794.817,79.482,794.8,0.000,158.963,0.000,0.000,0.000,0.000
 Lights Internal Gains Nominal, MECHANICAL_2_LIGHTS,MECHANICAL_LIGHTING,MECHANICAL_2,99.79,1.0,538.854,5.400,538.854,0.000,0.300,0.200,0.500,1.000,General,0.000,538.854,53.885,538.9,0.000,107.771,0.000,0.000,0.000,0.000
 Lights Internal Gains Nominal, OFFICE_OPEN_2_LIGHTS,OFFICE_OPEN_LIGHTING,OFFICE_OPEN_2,174.00,8.0,1879.157,10.800,234.895,0.000,0.300,0.200,0.500,1.000,General,0.000,1879.157,187.916,1879.2,0.000,375.831,0.000,0.000,0.000,0.000
 Lights Internal Gains Nominal, OFFICE_PRIVATE_2_LIGHTS,OFFICE_OPEN_LIGHTING,OFFICE_PRIVATE_2,39.22,1.0,423.601,10.800,423.601,0.000,0.300,0.200,0.500,1.000,General,0.000,423.601,42.360,423.6,0.000,84.720,0.000,0.000,0.000,0.000
 Lights Internal Gains Nominal, STORAGE_2_LIGHTS,STORAGE_LIGHTING,STORAGE_2,43.60,1.0,235.462,5.400,235.462,0.000,0.300,0.200,0.500,1.000,General,0.000,235.462,23.546,235.5,0.000,47.092,0.000,0.000,0.000,0.000
 Lights Internal Gains Nominal, LOBBY_3_LIGHTS,LOBBY_LIGHTING,LOBBY_3,184.50,9.0,2380.106,12.900,264.456,0.000,0.300,0.200,0.500,1.000,General,0.000,2380.106,238.011,2380.1,0.000,476.021,0.000,0.000,0.000,0.000
 Lights Internal Gains Nominal, CONFERENCE_3_LIGHTS,CONFERENCE_LIGHTING,CONFERENCE_3,97.06,19.0,1048.264,10.800,55.172,0.000,0.300,0.200,0.500,1.000,General,0.000,1048.264,104.826,1048.3,0.000,209.653,0.000,0.000,0.000,0.000
 Lights Internal Gains Nominal, BREAK_ROOM_3_LIGHTS,BREAK_ROOM_LIGHTING,BREAK_ROOM_3,37.74,3.0,305.664,8.100,101.888,0.000,0.300,0.200,0.500,1.000,General,0.000,305.664,30.566,305.7,0.000,61.133,0.000,0.000,0.000,0.000
 Lights Internal Gains Nominal, OFFICE_OPEN_3_LIGHTS,OFFICE_OPEN_LIGHTING,OFFICE_OPEN_3,106.17,5.0,1146.686,10.800,229.337,0.000,0.300,0.200,0.500,1.000,General,0.000,1146.686,114.669,1146.7,0.000,229.337,0.000,0.000,0.000,0.000
 Lights Internal Gains Nominal, OFFICE_PRIVATE_3_LIGHTS,OFFICE_OPEN_LIGHTING,OFFICE_PRIVATE_3,28.02,1.0,302.605,10.800,302.605,0.000,0.300,0.200,0.500,1.000,General,0.000,302.605,30.261,302.6,0.000,60.521,0.000,0.000,0.000,0.000
 Lights Internal Gains Nominal, LOBBY_4_LIGHTS,LOBBY_LIGHTING,LOBBY_4,117.58,5.0,1516.775,12.900,303.355,0.000,0.300,0.200,0.500,1.000,General,0.000,1516.775,151.678,1516.8,0.000,303.355,0.000,0.000,0.000,0.000
 Lights Internal Gains Nominal, BREAK_ROOM_4_LIGHTS,BREAK_ROOM_LIGHTING,BREAK_ROOM_4,66.79,6.0,541.015,8.100,90.169,0.000,0.300,0.200,0.500,1.000,General,0.000,541.015,54.102,541.0,0.000,108.203,0.000,0.000,0.000,0.000
 Lights Internal Gains Nominal, MECHANICAL_4_LIGHTS,MECHANICAL_LIGHTING,MECHANICAL_4,87.01,1.0,469.831,5.400,469.831,0.000,0.300,0.200,0.500,1.000,General,0.000,469.831,46.983,469.8,0.000,93.966,0.000,0.000,0.000,0.000
 Lights Internal Gains Nominal, OFFICE_OPEN_4_LIGHTS,OFFICE_OPEN_LIGHTING,OFFICE_OPEN_4,174.09,8.0,1880.151,10.800,235.019,0.000,0.300,0.200,0.500,1.000,General,0.000,1880.151,188.015,1880.2,0.000,376.030,0.000,0.000,0.000,0.000
 Lights Internal Gains Nominal, OFFICE_PRIVATE_4_LIGHTS,OFFICE_OPEN_LIGHTING,OFFICE_PRIVATE_4,21.72,1.0,234.590,10.800,234.590,0.000,0.300,0.200,0.500,1.000,General,0.000,234.590,23.459,234.6,0.000,46.918,0.000,0.000,0.000,0.000
 Lights Internal Gains Nominal, STORAGE_4_LIGHTS,STORAGE_LIGHTING,STORAGE_4,25.47,1.0,137.529,5.400,137.529,0.000,0.300,0.200,0.500,1.000,General,0.000,137.529,13.753,137.5,0.000,27.506,0.000,0.000,0.000,0.000
! <ElectricEquipment Internal Gains Nominal>,Name,Schedule Name,Zone Name,Zone Floor Area {m2},# Zone Occupants,Equipment Level {W},Equipment/Floor Area {W/m2},Equipment per person {W/person},Fraction Latent,Fraction Radiant,Fraction Lost,Fraction Convected,End-Use SubCategory,Minimum Equipment Level for All Day Types {W},Maximum Equipment Level for All Day Types {W},Minimum Equipment Level for Weekdays {W}, Maximum Equipment Level for Weekdays {W},Minimum Equipment Level for Weekends/Holidays {W}, Maximum Equipment Level for Weekends /Holidays {W},Minimum Equipment Level for Summer Design Days {W}, Maximum Equipment Level for Summer Design Days {W},Minimum Equipment Level for Winter Design Days {W}, Maximum Equipment Level for Winter Design Days {W}
 ElectricEquipment Internal Gains Nominal, LOBBY_0_EQUIPMENT,LOBBY_EQUIPMENT,LOBBY_0,130.00,6.0,415.984,3.200,69.331,0.100,0.200,0.000,0.700,General,0.000,332.787,124.795,332.787,0.000,124.795,0.000,0.000,0.000,0.000
 ElectricEquipment Internal Gains Nominal, CONFERENCE_0_EQUIPMENT,CONFERENCE_EQUIPMENT,CONFERENCE_0,95.75,19.0,775.541,8.100,40.818,0.100,0.200,0.000,0.700,General,0.000,620.433,232.662,620.433,0.000,232.662,0.000,0.000,0.000,0.000
 ElectricEquipment Internal Gains Nominal, BREAK_ROOM_0_EQUIPMENT,BREAK_ROOM_EQUIPMENT,BREAK_ROOM_0,47.76,4.0,716.440,15.000,179.110,0.100,0.200,0.000,0.700,General,0.000,573.152,214.932,573.152,0.000,214.932,0.000,0.000,0.000,0.000
 ElectricEquipment Internal Gains Nominal, MECHANICAL_0_EQUIPMENT,MECHANICAL_EQUIPMENT,MECHANICAL_0,34.49,1.0,0.000,0.000,0.000,0.100,0.200,0.000,0.700,General,0.000,0.000,0.000,0.000,0.000,0.000,0.000,0.000,0.000,0.000
 ElectricEquipment Internal Gains Nominal, OFFICE_OPEN_0_EQUIPMENT,OFFICE_OPEN_EQUIPMENT,OFFICE_OPEN_0,231.94,11.0,1878.683,8.100,170.789,0.100,0.200,0.000,0.700,General,0.000,1502.946,563.605,1502.946,0.000,563.605,0.000,0.000,0.000,0.000
 ElectricEquipment Internal Gains Nominal, OFFICE_PRIVATE_0_EQUIPMENT,OFFICE_OPEN_EQUIPMENT,OFFICE_PRIVATE_0,34.88,1.0,282.553,8.100,282.553,0.100,0.200,0.000,0.700,General,0.000,226.043,84.766,226.043,0.000,84.766,0.000,0.000,0.000,0.000
 ElectricEquipment Internal Gains Nominal, STORAGE_0_EQUIPMENT,STORAGE_EQUIPMENT,STORAGE_0,11.78,1.0,12.963,1.100,12.963,0.100,0.200,0.000,0.700,General,0.000,10.371,3.889,10.371,0.000,3.889,0.000,0.000,0.000,0.000
 ElectricEquipment Internal Gains Nominal, LOBBY_1_EQUIPMENT,LOBBY_EQUIPMENT,LOBBY_1,99.09,4.0,317.092,3.200,79.273,0.100,0.200,0.000,0.700,General,0.000,253.673,95.127,253.673,0.000,95.127,0.000,0.000,0.000,0.000
 ElectricEquipment Internal Gains Nominal, CONFERENCE_1_EQUIPMENT,CONFERENCE_EQUIPMENT,CONFERENCE_1,77.11,15.0,624.562,8.100,41.637,0.100,0.200,0.000,0.700,General,0.000,499.650,187.369,499.650,0.000,187.369,0.000,0.000,0.000,0.000
 ElectricEquipment Internal Gains Nominal, BREAK_ROOM_1_EQUIPMENT,BREAK_ROOM_EQUIPMENT,BREAK_ROOM_1,55.02,5.0,825.239,15.000,165.048,0.100,0.200,0.000,0.700,General,0.000,660.191,247.572,660.191,0.000,247.572,0.000,0.000,0.000,0.000
 ElectricEquipment Internal Gains Nominal, MECHANICAL_1_EQUIPMENT,MECHANICAL_EQUIPMENT,MECHANICAL_1,90.22,1.0,0.000,0.000,0.000,0.100,0.200,0.000,0.700,General,0.000,0.000,0.000,0.000,0.000,0.000,0.000,0.000,0.000,0.000
 ElectricEquipment Internal Gains Nominal, STORAGE_1_EQUIPMENT,STORAGE_EQUIPMENT,STORAGE_1,25.98,1.0,28.573,1.100,28.573,0.100,0.200,0.000,0.700,General,0.000,22.858,8.572,22.858,0.000,8.572,0.000,0.000,0.000,0.000
 ElectricEquipment Internal Gains Nominal, LOBBY_2_EQUIPMENT,LOBBY_EQUIPMENT,LOBBY_2,168.71,8.0,539.862,3.200,67.483,0.100,0.200,0.000,0.700,General,0.000,431.889,161.959,431.889,0.000,161.959,0.000,0.000,0.000,0.000
 ElectricEquipment Internal Gains Nominal, CONFERENCE_2_EQUIPMENT,CONFERENCE_EQUIPMENT,CONFERENCE_2,73.59,14.0,596.113,8.100,42.580,0.100,0.200,0.000,0.700,General,0.000,476.890,178.834,476.890,0.000,178.834,0.000,0.000,0.000,0.000
 ElectricEquipment Internal Gains Nominal, MECHANICAL_2_EQUIPMENT,MECHANICAL_EQUIPMENT,MECHANICAL_2,99.79,1.0,0.000,0.000,0.000,0.100,0.200,0.000,0.700,General,0.000,0.000,0.000,0.000,0.000,0.000,0.000,0.000,0.000,0.000
 ElectricEquipment Internal Gains Nominal, OFFICE_OPEN_2_EQUIPMENT,OFFICE_OPEN_EQUIPMENT,OFFICE_OPEN_2,174.00,8.0,1409.368,8.100,176.171,0.100,0.200,0.000,0.700,General,0.000,1127.494,422.810,1127.494,0.000,422.810,0.000,0.000,0.000,0.000
 ElectricEquipment Internal Gains Nominal, OFFICE_PRIVATE_2_EQUIPMENT,OFFICE_OPEN_EQUIPMENT,OFFICE_PRIVATE_2,39.22,1.0,317.701,8.100,317.701,0.100,0.200,0.000,0.700,General,0.000,254.161,95.310,254.161,0.000,95.310,0.000,0.000,0.000,0.000
 ElectricEquipment Internal Gains Nominal, STORAGE_2_EQUIPMENT,STORAGE_EQUIPMENT,STORAGE_2,43.60,1.0,47.964,1.100,47.964,0.100,0.200,0.000,0.700,General,0.000,38.372,14.389,38.372,0.000,14.389,0.000,0.000,0.000,0.000
 ElectricEquipment Internal Gains Nominal, LOBBY_3_EQUIPMENT,LOBBY_EQUIPMENT,LOBBY_3,184.50,9.0,590.414,3.200,65.602,0.100,0.200,0.000,0.700,General,0.000,472.331,177.124,472.331,0.000,177.124,0.000,0.000,0.000,0.000
 ElectricEquipment Internal Gains Nominal, CONFERENCE_3_EQUIPMENT,CONFERENCE_EQUIPMENT,CONFERENCE_3,97.06,19.0,786.198,8.100,41.379,0.100,0.200,0.000,0.700,General,0.000,628.958,235.859,628.958,0.000,235.859,0.000,0.000,0.000,0.000
 ElectricEquipment Internal Gains Nominal, BREAK_ROOM_3_EQUIPMENT,BREAK_ROOM_EQUIPMENT,BREAK_ROOM_3,37.74,3.0,566.044,15.000,188.681,0.100,0.200,0.000,0.700,General,0.000,452.836,169.813,452.836,0.000,169.813,0.000,0.000,0.000,0.000
 ElectricEquipment Internal Gains Nominal, OFFICE_OPEN_3_EQUIPMENT,OFFICE_OPEN_EQUIPMENT,OFFICE_OPEN_3,106.17,5.0,860.015,8.100,172.003,0.100,0.200,0.000,0.700,General,0.000,688.012,258.004,688.012,0.000,258.004,0.000,0.000,0.000,0.000
 ElectricEquipment Internal Gains Nominal, OFFICE_PRIVATE_3_EQUIPMENT,OFFICE_OPEN_EQUIPMENT,OFFICE_PRIVATE_3,28.02,1.0,226.954,8.100,226.954,0.100,0.200,0.000,0.700,General,0.000,181.563,68.086,181.563,0.000,68.086,0.000,0.000,0.000,0.000
 ElectricEquipment Internal Gains Nominal, LOBBY_4_EQUIPMENT,LOBBY_EQUIPMENT,LOBBY_4,117.58,5.0,376.254,3.200,75.251,0.100,0.200,0.000,0.700,General,0.000,301.003,112.876,301.003,0.000,112.876,0.000,0.000,0.000,0.000
 ElectricEquipment Internal Gains Nominal, BREAK_ROOM_4_EQUIPMENT,BREAK_ROOM_EQUIPMENT,BREAK_ROOM_4,66.79,6.0,1001.880,15.000,166.980,0.100,0.200,0.000,0.700,General,0.000,801.504,300.564,801.504,0.000,300.564,0.000,0.000,0.000,0.000
 ElectricEquipment Internal Gains Nominal, MECHANICAL_4_EQUIPMENT,MECHANICAL_EQUIPMENT,MECHANICAL_4,87.01,1.0,0.000,0.000,0.000,0.100,0.200,0.000,0.700,General,0.000,0.000,0.000,0.000,0.000,0.000,0.000,0.000,0.000,0.000
 ElectricEquipment Internal Gains Nominal, OFFICE_OPEN_4_EQUIPMENT,OFFICE_OPEN_EQUIPMENT,OFFICE_OPEN_4,174.09,8.0,1410.113,8.100,176.264,0.100,0.200,0.000,0.700,General,0.000,1128.090,423.034,1128.090,0.000,423.034,0.000,0.000,0.000,0.000
 ElectricEquipment Internal Gains Nominal, OFFICE_PRIVATE_4_EQUIPMENT,OFFICE_OPEN_EQUIPMENT,OFFICE_PRIVATE_4,21.72,1.0,175.943,8.100,175.943,0.100,0.200,0.000,0.700,General,0.000,140.754,52.783,140.754,0.000,52.783,0.000,0.000,0.000,0.000
 ElectricEquipment Internal Gains Nominal, STORAGE_4_EQUIPMENT,STORAGE_EQUIPMENT,STORAGE_4,25.47,1.0,28.015,1.100,28.015,0.100,0.200,0.000,0.700,General,0.000,22.412,8.405,22.412,0.000,8.405,0.000,0.000,0.000,0.000
! <Enclosure/Window Adjacency Daylighting Counts>, Enclosure Name, Number of Exterior Windows, Number of Exterior Windows in Adjacent Enclosures
Enclosure/Window Adjacency Daylighting Counts, LOBBY_0,4,0
Enclosure/Window Adjacency Daylighting Counts, CONFERENCE_0,4,0
Enclosure/Window Adjacency Daylighting Counts, BREAK_ROOM_0,4,0
Enclosure/Window Adjacency Daylighting Counts, OFFICE_OPEN_0,4,0
Enclosure/Window Adjacency Daylighting Counts, OFFICE_PRIVATE_0,4,0
Enclosure/Window Adjacency Daylighting Counts, LOBBY_1,4,0
Enclosure/Window Adjacency Daylighting Counts, CONFERENCE_1,4,0
Enclosure/Window Adjacency Daylighting Counts, BREAK_ROOM_1,4,0
Enclosure/Window Adjacency Daylighting Counts, LOBBY_2,4,0
Enclosure/Window Adjacency Daylighting Counts, CONFERENCE_2,4,0
Enclosure/Window Adjacency Daylighting Counts, OFFICE_OPEN_2,4,0
Enclosure/Window Adjacency Daylighting Counts, OFFICE_PRIVATE_2,4,0
Enclosure/Window Adjacency Daylighting Counts, LOBBY_3,4,0
Enclosure/Window Adjacency Daylighting Counts, CONFERENCE_3,4,0
Enclosure/Window Adjacency Daylighting Counts, BREAK_ROOM_3,4,0
Enclosure/Window Adjacency Daylighting Counts, OFFICE_OPEN_3,4,0
Enclosure/Window Adjacency Daylighting Counts, OFFICE_PRIVATE_3,4,0
Enclosure/Window Adjacency Daylighting Counts, LOBBY_4,4,0
Enclosure/Window Adjacency Daylighting Counts, BREAK_ROOM_4,4,0
Enclosure/Window Adjacency Daylighting Counts, OFFICE_OPEN_4,4,0
Enclosure/Window Adjacency Daylighting Counts, OFFICE_PRIVATE_4,4,0
! <Enclosure/Window Adjacency Daylighting Matrix>, Enclosure Name, Number of Adjacent Enclosures with Windows,Adjacent Enclosure Names - 1st 100 (max)
Enclosure/Window Adjacency Daylighting Matrix, LOBBY_0,0
Enclosure/Window Adjacency Daylighting Matrix, CONFERENCE_0,0
Enclosure/Window Adjacency Daylighting Matrix, BREAK_ROOM_0,0
Enclosure/Window Adjacency Daylighting Matrix, OFFICE_OPEN_0,0
Enclosure/Window Adjacency Daylighting Matrix, OFFICE_PRIVATE_0,0
Enclosure/Window Adjacency Daylighting Matrix, LOBBY_1,0
Enclosure/Window Adjacency Daylighting Matrix, CONFERENCE_1,0
Enclosure/Window Adjacency Daylighting Matrix, BREAK_ROOM_1,0
Enclosure/Window Adjacency Daylighting Matrix, LOBBY_2,0
Enclosure/Window Adjacency Daylighting Matrix, CONFERENCE_2,0
Enclosure/Window Adjacency Daylighting Matrix, OFFICE_OPEN_2,0
Enclosure/Window Adjacency Daylighting Matrix, OFFICE_PRIVATE_2,0
Enclosure/Window Adjacency Daylighting Matrix, LOBBY_3,0
Enclosure/Window Adjacency Daylighting Matrix, CONFERENCE_3,0
Enclosure/Window Adjacency Daylighting Matrix, BREAK_ROOM_3,0
Enclosure/Window Adjacency Daylighting Matrix, OFFICE_OPEN_3,0
Enclosure/Window Adjacency Daylighting Matrix, OFFICE_PRIVATE_3,0
Enclosure/Window Adjacency Daylighting Matrix, LOBBY_4,0
Enclosure/Window Adjacency Daylighting Matrix, BREAK_ROOM_4,0
Enclosure/Window Adjacency Daylighting Matrix, OFFICE_OPEN_4,0
Enclosure/Window Adjacency Daylighting Matrix, OFFICE_PRIVATE_4,0
! <ZoneInfiltration Airflow Stats Nominal>,Name,Schedule Name,Zone Name, Zone Floor Area {m2}, # Zone Occupants,Design Volume Flow Rate {m3/s},Volume Flow Rate/Floor Area {m3/s-m2},Volume Flow Rate/Exterior Surface Area {m3/s-m2},ACH - Air Changes per Hour,Equation A - Constant Term Coefficient {},Equation B - Temperature Term Coefficient {1/C},Equation C - Velocity Term Coefficient {s/m}, Equation D - Velocity Squared Term Coefficient {s2/m2}
 ZoneInfiltration Airflow Stats Nominal, LOBBY_0_INFILTRATION,LOBBY_0_INFILTRATION_SCHEDULE,LOBBY_0,130.00,6.0,0.000,0.000,0.000,0.000,0.000,0.000,0.000,0.000
 ZoneInfiltration Airflow Stats Nominal, CONFERENCE_0_INFILTRATION,CONFERENCE_0_INFILTRATION_SCHEDULE,CONFERENCE_0,95.75,19.0,0.000,0.000,0.000,0.000,0.000,0.000,0.000,0.000
 ZoneInfiltration Airflow Stats Nominal, BREAK_ROOM_0_INFILTRATION,BREAK_ROOM_0_INFILTRATION_SCHEDULE,BREAK_ROOM_0,47.76,4.0,0.000,0.000,0.000,0.000,0.000,0.000,0.000,0.000
 ZoneInfiltration Airflow Stats Nominal, MECHANICAL_0_INFILTRATION,MECHANICAL_0_INFILTRATION_SCHEDULE,MECHANICAL_0,34.49,1.0,0.000,0.000,0.000,0.000,0.000,0.000,0.000,0.000
 ZoneInfiltration Airflow Stats Nominal, OFFICE_OPEN_0_INFILTRATION,OFFICE_OPEN_0_INFILTRATION_SCHEDULE,OFFICE_OPEN_0,231.94,11.0,0.000,0.000,0.000,0.000,0.000,0.000,0.000,0.000
 ZoneInfiltration Airflow Stats Nominal, OFFICE_PRIVATE_0_INFILTRATION,OFFICE_PRIVATE_0_INFILTRATION_SCHEDULE,OFFICE_PRIVATE_0,34.88,1.0,0.000,0.000,0.000,0.000,0.000,0.000,0.000,0.000
 ZoneInfiltration Airflow Stats Nominal, STORAGE_0_INFILTRATION,STORAGE_0_INFILTRATION_SCHEDULE,STORAGE_0,11.78,1.0,0.000,0.000,0.000,0.000,0.000,0.000,0.000,0.000
 ZoneInfiltration Airflow Stats Nominal, LOBBY_1_INFILTRATION,LOBBY_1_INFILTRATION_SCHEDULE,LOBBY_1,99.09,4.0,0.000,0.000,0.000,0.000,0.000,0.000,0.000,0.000
 ZoneInfiltration Airflow Stats Nominal, CONFERENCE_1_INFILTRATION,CONFERENCE_1_INFILTRATION_SCHEDULE,CONFERENCE_1,77.11,15.0,0.000,0.000,0.000,0.000,0.000,0.000,0.000,0.000
 ZoneInfiltration Airflow Stats Nominal, BREAK_ROOM_1_INFILTRATION,BREAK_ROOM_1_INFILTRATION_SCHEDULE,BREAK_ROOM_1,55.02,5.0,0.000,0.000,0.000,0.000,0.000,0.000,0.000,0.000
 ZoneInfiltration Airflow Stats Nominal, MECHANICAL_1_INFILTRATION,MECHANICAL_1_INFILTRATION_SCHEDULE,MECHANICAL_1,90.22,1.0,0.000,0.000,0.000,0.000,0.000,0.000,0.000,0.000
 ZoneInfiltration Airflow Stats Nominal, STORAGE_1_INFILTRATION,STORAGE_1_INFILTRATION_SCHEDULE,STORAGE_1,25.98,1.0,0.000,0.000,0.000,0.000,0.000,0.000,0.000,0.000
 ZoneInfiltration Airflow Stats Nominal, LOBBY_2_INFILTRATION,LOBBY_2_INFILTRATION_SCHEDULE,LOBBY_2,168.71,8.0,0.000,0.000,0.000,0.000,0.000,0.000,0.000,0.000
 ZoneInfiltration Airflow Stats Nominal, CONFERENCE_2_INFILTRATION,CONFERENCE_2_INFILTRATION_SCHEDULE,CONFERENCE_2,73.59,14.0,0.000,0.000,0.000,0.000,0.000,0.000,0.000,0.000
 ZoneInfiltration Airflow Stats Nominal, MECHANICAL_2_INFILTRATION,MECHANICAL_2_INFILTRATION_SCHEDULE,MECHANICAL_2,99.79,1.0,0.000,0.000,0.000,0.000,0.000,0.000,0.000,0.000
 ZoneInfiltration Airflow Stats Nominal, OFFICE_OPEN_2_INFILTRATION,OFFICE_OPEN_2_INFILTRATION_SCHEDULE,OFFICE_OPEN_2,174.00,8.0,0.000,0.000,0.000,0.000,0.000,0.000,0.000,0.000
 ZoneInfiltration Airflow Stats Nominal, OFFICE_PRIVATE_2_INFILTRATION,OFFICE_PRIVATE_2_INFILTRATION_SCHEDULE,OFFICE_PRIVATE_2,39.22,1.0,0.000,0.000,0.000,0.000,0.000,0.000,0.000,0.000
 ZoneInfiltration Airflow Stats Nominal, STORAGE_2_INFILTRATION,STORAGE_2_INFILTRATION_SCHEDULE,STORAGE_2,43.60,1.0,0.000,0.000,0.000,0.000,0.000,0.000,0.000,0.000
 ZoneInfiltration Airflow Stats Nominal, LOBBY_3_INFILTRATION,LOBBY_3_INFILTRATION_SCHEDULE,LOBBY_3,184.50,9.0,0.000,0.000,0.000,0.000,0.000,0.000,0.000,0.000
 ZoneInfiltration Airflow Stats Nominal, CONFERENCE_3_INFILTRATION,CONFERENCE_3_INFILTRATION_SCHEDULE,CONFERENCE_3,97.06,19.0,0.000,0.000,0.000,0.000,0.000,0.000,0.000,0.000
 ZoneInfiltration Airflow Stats Nominal, BREAK_ROOM_3_INFILTRATION,BREAK_ROOM_3_INFILTRATION_SCHEDULE,BREAK_ROOM_3,37.74,3.0,0.000,0.000,0.000,0.000,0.000,0.000,0.000,0.000
 ZoneInfiltration Airflow Stats Nominal, OFFICE_OPEN_3_INFILTRATION,OFFICE_OPEN_3_INFILTRATION_SCHEDULE,OFFICE_OPEN_3,106.17,5.0,0.000,0.000,0.000,0.000,0.000,0.000,0.000,0.000
 ZoneInfiltration Airflow Stats Nominal, OFFICE_PRIVATE_3_INFILTRATION,OFFICE_PRIVATE_3_INFILTRATION_SCHEDULE,OFFICE_PRIVATE_3,28.02,1.0,0.000,0.000,0.000,0.000,0.000,0.000,0.000,0.000
 ZoneInfiltration Airflow Stats Nominal, LOBBY_4_INFILTRATION,LOBBY_4_INFILTRATION_SCHEDULE,LOBBY_4,117.58,5.0,0.000,0.000,0.000,0.000,0.000,0.000,0.000,0.000
 ZoneInfiltration Airflow Stats Nominal, BREAK_ROOM_4_INFILTRATION,BREAK_ROOM_4_INFILTRATION_SCHEDULE,BREAK_ROOM_4,66.79,6.0,0.000,0.000,0.000,0.000,0.000,0.000,0.000,0.000
 ZoneInfiltration Airflow Stats Nominal, MECHANICAL_4_INFILTRATION,MECHANICAL_4_INFILTRATION_SCHEDULE,MECHANICAL_4,87.01,1.0,0.000,0.000,0.000,0.000,0.000,0.000,0.000,0.000
 ZoneInfiltration Airflow Stats Nominal, OFFICE_OPEN_4_INFILTRATION,OFFICE_OPEN_4_INFILTRATION_SCHEDULE,OFFICE_OPEN_4,174.09,8.0,0.000,0.000,0.000,0.000,0.000,0.000,0.000,0.000
 ZoneInfiltration Airflow Stats Nominal, OFFICE_PRIVATE_4_INFILTRATION,OFFICE_PRIVATE_4_INFILTRATION_SCHEDULE,OFFICE_PRIVATE_4,21.72,1.0,0.000,0.000,0.000,0.000,0.000,0.000,0.000,0.000
 ZoneInfiltration Airflow Stats Nominal, STORAGE_4_INFILTRATION,STORAGE_4_INFILTRATION_SCHEDULE,STORAGE_4,25.47,1.0,0.000,0.000,0.000,0.000,0.000,0.000,0.000,0.000
! <AirFlow Model>, Simple
 AirFlow Model, Simple
! <RoomAir Model>, Zone Name, Mixing/Mundt/UCSDDV/UCSDCV/UCSDUFI/UCSDUFE/User Defined
RoomAir Model,LOBBY_0,Mixing/Well-Stirred
RoomAir Model,CONFERENCE_0,Mixing/Well-Stirred
RoomAir Model,BREAK_ROOM_0,Mixing/Well-Stirred
RoomAir Model,MECHANICAL_0,Mixing/Well-Stirred
RoomAir Model,OFFICE_OPEN_0,Mixing/Well-Stirred
RoomAir Model,OFFICE_PRIVATE_0,Mixing/Well-Stirred
RoomAir Model,STORAGE_0,Mixing/Well-Stirred
RoomAir Model,LOBBY_1,Mixing/Well-Stirred
RoomAir Model,CONFERENCE_1,Mixing/Well-Stirred
RoomAir Model,BREAK_ROOM_1,Mixing/Well-Stirred
RoomAir Model,MECHANICAL_1,Mixing/Well-Stirred
RoomAir Model,STORAGE_1,Mixing/Well-Stirred
RoomAir Model,LOBBY_2,Mixing/Well-Stirred
RoomAir Model,CONFERENCE_2,Mixing/Well-Stirred
RoomAir Model,MECHANICAL_2,Mixing/Well-Stirred
RoomAir Model,OFFICE_OPEN_2,Mixing/Well-Stirred
RoomAir Model,OFFICE_PRIVATE_2,Mixing/Well-Stirred
RoomAir Model,STORAGE_2,Mixing/Well-Stirred
RoomAir Model,LOBBY_3,Mixing/Well-Stirred
RoomAir Model,CONFERENCE_3,Mixing/Well-Stirred
RoomAir Model,BREAK_ROOM_3,Mixing/Well-Stirred
RoomAir Model,OFFICE_OPEN_3,Mixing/Well-Stirred
RoomAir Model,OFFICE_PRIVATE_3,Mixing/Well-Stirred
RoomAir Model,LOBBY_4,Mixing/Well-Stirred
RoomAir Model,BREAK_ROOM_4,Mixing/Well-Stirred
RoomAir Model,MECHANICAL_4,Mixing/Well-Stirred
RoomAir Model,OFFICE_OPEN_4,Mixing/Well-Stirred
RoomAir Model,OFFICE_PRIVATE_4,Mixing/Well-Stirred
RoomAir Model,STORAGE_4,Mixing/Well-Stirred
! <AirflowNetwork Model:Control>, No Multizone or Distribution/Multizone with Distribution/Multizone without Distribution/Multizone with Distribution only during Fan Operation
AirflowNetwork Model:Control,NoMultizoneOrDistribution
! <Zone Volume Capacitance Multiplier>, Sensible Heat Capacity Multiplier, Moisture Capacity Multiplier, Carbon Dioxide Capacity Multiplier, Generic Contaminant Capacity Multiplier
Zone Volume Capacitance Multiplier,   1.000 ,   1.000,   1.000,   1.000
! <Component Sizing Information>, Component Type, Component Name, Input Field Description, Value
 Component Sizing Information, AirTerminal:SingleDuct:VAV:Reheat, LOBBY_0_Z1_VAVTERMINAL, User-Specified Maximum Air Flow Rate [m3/s], 0.64998
 Component Sizing Information, AirTerminal:SingleDuct:VAV:Reheat, LOBBY_0_Z1_VAVTERMINAL, Design Size Constant Minimum Air Flow Fraction, 0.20000
 Component Sizing Information, AirTerminal:SingleDuct:VAV:Reheat, LOBBY_0_Z1_VAVTERMINAL, User-Specified Constant Minimum Air Flow Fraction, 0.20000
 Component Sizing Information, AirTerminal:SingleDuct:VAV:Reheat, LOBBY_0_Z1_VAVTERMINAL, Design Size Minimum Air Flow Rate [m3/s], 0.13000
 Component Sizing Information, AirTerminal:SingleDuct:VAV:Reheat, LOBBY_0_Z1_VAVTERMINAL, Design Size Maximum Flow per Zone Floor Area during Reheat [m3/s-m2], 1.00000E-003
 Component Sizing Information, AirTerminal:SingleDuct:VAV:Reheat, LOBBY_0_Z1_VAVTERMINAL, Design Size Maximum Flow Fraction during Reheat [], 0.20000
 Component Sizing Information, AirTerminal:SingleDuct:VAV:Reheat, LOBBY_0_Z1_VAVTERMINAL, User-Specified Maximum Reheat Water Flow Rate [m3/s], 10.39964
 Component Sizing Information, Coil:Heating:Electric, LOBBY_0_Z1_REHEATCOIL, User-Specified Nominal Capacity [W], 3119.89088
 Component Sizing Information, AirTerminal:SingleDuct:VAV:Reheat, CONFERENCE_0_Z2_VAVTERMINAL, User-Specified Maximum Air Flow Rate [m3/s], 0.47873
 Component Sizing Information, AirTerminal:SingleDuct:VAV:Reheat, CONFERENCE_0_Z2_VAVTERMINAL, Design Size Constant Minimum Air Flow Fraction, 0.20000
 Component Sizing Information, AirTerminal:SingleDuct:VAV:Reheat, CONFERENCE_0_Z2_VAVTERMINAL, User-Specified Constant Minimum Air Flow Fraction, 0.20000
 Component Sizing Information, AirTerminal:SingleDuct:VAV:Reheat, CONFERENCE_0_Z2_VAVTERMINAL, Design Size Minimum Air Flow Rate [m3/s], 9.57451E-002
 Component Sizing Information, AirTerminal:SingleDuct:VAV:Reheat, CONFERENCE_0_Z2_VAVTERMINAL, Design Size Maximum Flow per Zone Floor Area during Reheat [m3/s-m2], 9.99993E-004
 Component Sizing Information, AirTerminal:SingleDuct:VAV:Reheat, CONFERENCE_0_Z2_VAVTERMINAL, Design Size Maximum Flow Fraction during Reheat [], 0.20000
 Component Sizing Information, AirTerminal:SingleDuct:VAV:Reheat, CONFERENCE_0_Z2_VAVTERMINAL, User-Specified Maximum Reheat Water Flow Rate [m3/s], 7.65961
 Component Sizing Information, Coil:Heating:Electric, CONFERENCE_0_Z2_REHEATCOIL, User-Specified Nominal Capacity [W], 2297.88213
 Component Sizing Information, AirTerminal:SingleDuct:VAV:Reheat, BREAK_ROOM_0_Z3_VAVTERMINAL, User-Specified Maximum Air Flow Rate [m3/s], 0.23881
 Component Sizing Information, AirTerminal:SingleDuct:VAV:Reheat, BREAK_ROOM_0_Z3_VAVTERMINAL, Design Size Constant Minimum Air Flow Fraction, 0.20000
 Component Sizing Information, AirTerminal:SingleDuct:VAV:Reheat, BREAK_ROOM_0_Z3_VAVTERMINAL, User-Specified Constant Minimum Air Flow Fraction, 0.20000
 Component Sizing Information, AirTerminal:SingleDuct:VAV:Reheat, BREAK_ROOM_0_Z3_VAVTERMINAL, Design Size Minimum Air Flow Rate [m3/s], 4.77620E-002
 Component Sizing Information, AirTerminal:SingleDuct:VAV:Reheat, BREAK_ROOM_0_Z3_VAVTERMINAL, Design Size Maximum Flow per Zone Floor Area during Reheat [m3/s-m2], 9.99987E-004
 Component Sizing Information, AirTerminal:SingleDuct:VAV:Reheat, BREAK_ROOM_0_Z3_VAVTERMINAL, Design Size Maximum Flow Fraction during Reheat [], 0.20000
 Component Sizing Information, AirTerminal:SingleDuct:VAV:Reheat, BREAK_ROOM_0_Z3_VAVTERMINAL, User-Specified Maximum Reheat Water Flow Rate [m3/s], 3.82096
 Component Sizing Information, Coil:Heating:Electric, BREAK_ROOM_0_Z3_REHEATCOIL, User-Specified Nominal Capacity [W], 1146.28896
 Component Sizing Information, AirTerminal:SingleDuct:VAV:Reheat, MECHANICAL_0_Z4_VAVTERMINAL, User-Specified Maximum Air Flow Rate [m3/s], 0.17244
 Component Sizing Information, AirTerminal:SingleDuct:VAV:Reheat, MECHANICAL_0_Z4_VAVTERMINAL, Design Size Constant Minimum Air Flow Fraction, 0.20000
 Component Sizing Information, AirTerminal:SingleDuct:VAV:Reheat, MECHANICAL_0_Z4_VAVTERMINAL, User-Specified Constant Minimum Air Flow Fraction, 0.20000
 Component Sizing Information, AirTerminal:SingleDuct:VAV:Reheat, MECHANICAL_0_Z4_VAVTERMINAL, Design Size Minimum Air Flow Rate [m3/s], 3.44884E-002
 Component Sizing Information, AirTerminal:SingleDuct:VAV:Reheat, MECHANICAL_0_Z4_VAVTERMINAL, Design Size Maximum Flow per Zone Floor Area during Reheat [m3/s-m2], 9.99995E-004
 Component Sizing Information, AirTerminal:SingleDuct:VAV:Reheat, MECHANICAL_0_Z4_VAVTERMINAL, Design Size Maximum Flow Fraction during Reheat [], 0.20000
 Component Sizing Information, AirTerminal:SingleDuct:VAV:Reheat, MECHANICAL_0_Z4_VAVTERMINAL, User-Specified Maximum Reheat Water Flow Rate [m3/s], 2.75907
 Component Sizing Information, Coil:Heating:Electric, MECHANICAL_0_Z4_REHEATCOIL, User-Specified Nominal Capacity [W], 827.72169
 Component Sizing Information, AirTerminal:SingleDuct:VAV:Reheat, OFFICE_OPEN_0_Z5_VAVTERMINAL, User-Specified Maximum Air Flow Rate [m3/s], 1.15967
 Component Sizing Information, AirTerminal:SingleDuct:VAV:Reheat, OFFICE_OPEN_0_Z5_VAVTERMINAL, Design Size Constant Minimum Air Flow Fraction, 0.20000
 Component Sizing Information, AirTerminal:SingleDuct:VAV:Reheat, OFFICE_OPEN_0_Z5_VAVTERMINAL, User-Specified Constant Minimum Air Flow Fraction, 0.20000
 Component Sizing Information, AirTerminal:SingleDuct:VAV:Reheat, OFFICE_OPEN_0_Z5_VAVTERMINAL, Design Size Minimum Air Flow Rate [m3/s], 0.23193
 Component Sizing Information, AirTerminal:SingleDuct:VAV:Reheat, OFFICE_OPEN_0_Z5_VAVTERMINAL, Design Size Maximum Flow per Zone Floor Area during Reheat [m3/s-m2], 9.99991E-004
 Component Sizing Information, AirTerminal:SingleDuct:VAV:Reheat, OFFICE_OPEN_0_Z5_VAVTERMINAL, Design Size Maximum Flow Fraction during Reheat [], 0.20000
 Component Sizing Information, AirTerminal:SingleDuct:VAV:Reheat, OFFICE_OPEN_0_Z5_VAVTERMINAL, User-Specified Maximum Reheat Water Flow Rate [m3/s], 18.55472
 Component Sizing Information, Coil:Heating:Electric, OFFICE_OPEN_0_Z5_REHEATCOIL, User-Specified Nominal Capacity [W], 5566.41532
 Component Sizing Information, AirTerminal:SingleDuct:VAV:Reheat, OFFICE_PRIVATE_0_Z6_VAVTERMINAL, User-Specified Maximum Air Flow Rate [m3/s], 0.17442
 Component Sizing Information, AirTerminal:SingleDuct:VAV:Reheat, OFFICE_PRIVATE_0_Z6_VAVTERMINAL, Design Size Constant Minimum Air Flow Fraction, 0.20000
 Component Sizing Information, AirTerminal:SingleDuct:VAV:Reheat, OFFICE_PRIVATE_0_Z6_VAVTERMINAL, User-Specified Constant Minimum Air Flow Fraction, 0.20000
 Component Sizing Information, AirTerminal:SingleDuct:VAV:Reheat, OFFICE_PRIVATE_0_Z6_VAVTERMINAL, Design Size Minimum Air Flow Rate [m3/s], 3.48831E-002
 Component Sizing Information, AirTerminal:SingleDuct:VAV:Reheat, OFFICE_PRIVATE_0_Z6_VAVTERMINAL, Design Size Maximum Flow per Zone Floor Area during Reheat [m3/s-m2], 1.00000E-003
 Component Sizing Information, AirTerminal:SingleDuct:VAV:Reheat, OFFICE_PRIVATE_0_Z6_VAVTERMINAL, Design Size Maximum Flow Fraction during Reheat [], 0.20000
 Component Sizing Information, AirTerminal:SingleDuct:VAV:Reheat, OFFICE_PRIVATE_0_Z6_VAVTERMINAL, User-Specified Maximum Reheat Water Flow Rate [m3/s], 2.79065
 Component Sizing Information, Coil:Heating:Electric, OFFICE_PRIVATE_0_Z6_REHEATCOIL, User-Specified Nominal Capacity [W], 837.19510
 Component Sizing Information, AirTerminal:SingleDuct:VAV:Reheat, STORAGE_0_Z7_VAVTERMINAL, User-Specified Maximum Air Flow Rate [m3/s], 5.89232E-002
 Component Sizing Information, AirTerminal:SingleDuct:VAV:Reheat, STORAGE_0_Z7_VAVTERMINAL, Design Size Constant Minimum Air Flow Fraction, 0.20000
 Component Sizing Information, AirTerminal:SingleDuct:VAV:Reheat, STORAGE_0_Z7_VAVTERMINAL, User-Specified Constant Minimum Air Flow Fraction, 0.20000
 Component Sizing Information, AirTerminal:SingleDuct:VAV:Reheat, STORAGE_0_Z7_VAVTERMINAL, Design Size Minimum Air Flow Rate [m3/s], 1.17846E-002
 Component Sizing Information, AirTerminal:SingleDuct:VAV:Reheat, STORAGE_0_Z7_VAVTERMINAL, Design Size Maximum Flow per Zone Floor Area during Reheat [m3/s-m2], 9.99978E-004
 Component Sizing Information, AirTerminal:SingleDuct:VAV:Reheat, STORAGE_0_Z7_VAVTERMINAL, Design Size Maximum Flow Fraction during Reheat [], 0.20000
 Component Sizing Information, AirTerminal:SingleDuct:VAV:Reheat, STORAGE_0_Z7_VAVTERMINAL, User-Specified Maximum Reheat Water Flow Rate [m3/s], 0.94277
 Component Sizing Information, Coil:Heating:Electric, STORAGE_0_Z7_REHEATCOIL, User-Specified Nominal Capacity [W], 282.83152
 Component Sizing Information, AirTerminal:SingleDuct:VAV:Reheat, LOBBY_1_Z8_VAVTERMINAL, User-Specified Maximum Air Flow Rate [m3/s], 0.49545
 Component Sizing Information, AirTerminal:SingleDuct:VAV:Reheat, LOBBY_1_Z8_VAVTERMINAL, Design Size Constant Minimum Air Flow Fraction, 0.20000
 Component Sizing Information, AirTerminal:SingleDuct:VAV:Reheat, LOBBY_1_Z8_VAVTERMINAL, User-Specified Constant Minimum Air Flow Fraction, 0.20000
 Component Sizing Information, AirTerminal:SingleDuct:VAV:Reheat, LOBBY_1_Z8_VAVTERMINAL, Design Size Minimum Air Flow Rate [m3/s], 9.90909E-002
 Component Sizing Information, AirTerminal:SingleDuct:VAV:Reheat, LOBBY_1_Z8_VAVTERMINAL, Design Size Maximum Flow per Zone Floor Area during Reheat [m3/s-m2], 9.99998E-004
 Component Sizing Information, AirTerminal:SingleDuct:VAV:Reheat, LOBBY_1_Z8_VAVTERMINAL, Design Size Maximum Flow Fraction during Reheat [], 0.20000
 Component Sizing Information, AirTerminal:SingleDuct:VAV:Reheat, LOBBY_1_Z8_VAVTERMINAL, User-Specified Maximum Reheat Water Flow Rate [m3/s], 7.92727
 Component Sizing Information, Coil:Heating:Electric, LOBBY_1_Z8_REHEATCOIL, User-Specified Nominal Capacity [W], 2378.18100
 Component Sizing Information, AirTerminal:SingleDuct:VAV:Reheat, CONFERENCE_1_Z9_VAVTERMINAL, User-Specified Maximum Air Flow Rate [m3/s], 0.38553
 Component Sizing Information, AirTerminal:SingleDuct:VAV:Reheat, CONFERENCE_1_Z9_VAVTERMINAL, Design Size Constant Minimum Air Flow Fraction, 0.20000
 Component Sizing Information, AirTerminal:SingleDuct:VAV:Reheat, CONFERENCE_1_Z9_VAVTERMINAL, User-Specified Constant Minimum Air Flow Fraction, 0.20000
 Component Sizing Information, AirTerminal:SingleDuct:VAV:Reheat, CONFERENCE_1_Z9_VAVTERMINAL, Design Size Minimum Air Flow Rate [m3/s], 7.71067E-002
 Component Sizing Information, AirTerminal:SingleDuct:VAV:Reheat, CONFERENCE_1_Z9_VAVTERMINAL, Design Size Maximum Flow per Zone Floor Area during Reheat [m3/s-m2], 1.00000E-003
 Component Sizing Information, AirTerminal:SingleDuct:VAV:Reheat, CONFERENCE_1_Z9_VAVTERMINAL, Design Size Maximum Flow Fraction during Reheat [], 0.20000
 Component Sizing Information, AirTerminal:SingleDuct:VAV:Reheat, CONFERENCE_1_Z9_VAVTERMINAL, User-Specified Maximum Reheat Water Flow Rate [m3/s], 6.16853
 Component Sizing Information, Coil:Heating:Electric, CONFERENCE_1_Z9_REHEATCOIL, User-Specified Nominal Capacity [W], 1850.55996
 Component Sizing Information, AirTerminal:SingleDuct:VAV:Reheat, BREAK_ROOM_1_Z10_VAVTERMINAL, User-Specified Maximum Air Flow Rate [m3/s], 0.27508
 Component Sizing Information, AirTerminal:SingleDuct:VAV:Reheat, BREAK_ROOM_1_Z10_VAVTERMINAL, Design Size Constant Minimum Air Flow Fraction, 0.20000
 Component Sizing Information, AirTerminal:SingleDuct:VAV:Reheat, BREAK_ROOM_1_Z10_VAVTERMINAL, User-Specified Constant Minimum Air Flow Fraction, 0.20000
 Component Sizing Information, AirTerminal:SingleDuct:VAV:Reheat, BREAK_ROOM_1_Z10_VAVTERMINAL, Design Size Minimum Air Flow Rate [m3/s], 5.50162E-002
 Component Sizing Information, AirTerminal:SingleDuct:VAV:Reheat, BREAK_ROOM_1_Z10_VAVTERMINAL, Design Size Maximum Flow per Zone Floor Area during Reheat [m3/s-m2], 1.00001E-003
 Component Sizing Information, AirTerminal:SingleDuct:VAV:Reheat, BREAK_ROOM_1_Z10_VAVTERMINAL, Design Size Maximum Flow Fraction during Reheat [], 0.20000
 Component Sizing Information, AirTerminal:SingleDuct:VAV:Reheat, BREAK_ROOM_1_Z10_VAVTERMINAL, User-Specified Maximum Reheat Water Flow Rate [m3/s], 4.40130
 Component Sizing Information, Coil:Heating:Electric, BREAK_ROOM_1_Z10_REHEATCOIL, User-Specified Nominal Capacity [W], 1320.38892
 Component Sizing Information, AirTerminal:SingleDuct:VAV:Reheat, MECHANICAL_1_Z11_VAVTERMINAL, User-Specified Maximum Air Flow Rate [m3/s], 0.45109
 Component Sizing Information, AirTerminal:SingleDuct:VAV:Reheat, MECHANICAL_1_Z11_VAVTERMINAL, Design Size Constant Minimum Air Flow Fraction, 0.20000
 Component Sizing Information, AirTerminal:SingleDuct:VAV:Reheat, MECHANICAL_1_Z11_VAVTERMINAL, User-Specified Constant Minimum Air Flow Fraction, 0.20000
 Component Sizing Information, AirTerminal:SingleDuct:VAV:Reheat, MECHANICAL_1_Z11_VAVTERMINAL, Design Size Minimum Air Flow Rate [m3/s], 9.02182E-002
 Component Sizing Information, AirTerminal:SingleDuct:VAV:Reheat, MECHANICAL_1_Z11_VAVTERMINAL, Design Size Maximum Flow per Zone Floor Area during Reheat [m3/s-m2], 9.99999E-004
 Component Sizing Information, AirTerminal:SingleDuct:VAV:Reheat, MECHANICAL_1_Z11_VAVTERMINAL, Design Size Maximum Flow Fraction during Reheat [], 0.20000
 Component Sizing Information, AirTerminal:SingleDuct:VAV:Reheat, MECHANICAL_1_Z11_VAVTERMINAL, User-Specified Maximum Reheat Water Flow Rate [m3/s], 7.21746
 Component Sizing Information, Coil:Heating:Electric, MECHANICAL_1_Z11_REHEATCOIL, User-Specified Nominal Capacity [W], 2165.23724
 Component Sizing Information, AirTerminal:SingleDuct:VAV:Reheat, STORAGE_1_Z12_VAVTERMINAL, User-Specified Maximum Air Flow Rate [m3/s], 0.12988
 Component Sizing Information, AirTerminal:SingleDuct:VAV:Reheat, STORAGE_1_Z12_VAVTERMINAL, Design Size Constant Minimum Air Flow Fraction, 0.20000
 Component Sizing Information, AirTerminal:SingleDuct:VAV:Reheat, STORAGE_1_Z12_VAVTERMINAL, User-Specified Constant Minimum Air Flow Fraction, 0.20000
 Component Sizing Information, AirTerminal:SingleDuct:VAV:Reheat, STORAGE_1_Z12_VAVTERMINAL, Design Size Minimum Air Flow Rate [m3/s], 2.59750E-002
 Component Sizing Information, AirTerminal:SingleDuct:VAV:Reheat, STORAGE_1_Z12_VAVTERMINAL, Design Size Maximum Flow per Zone Floor Area during Reheat [m3/s-m2], 1.00000E-003
 Component Sizing Information, AirTerminal:SingleDuct:VAV:Reheat, STORAGE_1_Z12_VAVTERMINAL, Design Size Maximum Flow Fraction during Reheat [], 0.20000
 Component Sizing Information, AirTerminal:SingleDuct:VAV:Reheat, STORAGE_1_Z12_VAVTERMINAL, User-Specified Maximum Reheat Water Flow Rate [m3/s], 2.07800
 Component Sizing Information, Coil:Heating:Electric, STORAGE_1_Z12_REHEATCOIL, User-Specified Nominal Capacity [W], 623.40105
 Component Sizing Information, AirTerminal:SingleDuct:VAV:Reheat, LOBBY_2_Z13_VAVTERMINAL, User-Specified Maximum Air Flow Rate [m3/s], 0.84353
 Component Sizing Information, AirTerminal:SingleDuct:VAV:Reheat, LOBBY_2_Z13_VAVTERMINAL, Design Size Constant Minimum Air Flow Fraction, 0.20000
 Component Sizing Information, AirTerminal:SingleDuct:VAV:Reheat, LOBBY_2_Z13_VAVTERMINAL, User-Specified Constant Minimum Air Flow Fraction, 0.20000
 Component Sizing Information, AirTerminal:SingleDuct:VAV:Reheat, LOBBY_2_Z13_VAVTERMINAL, Design Size Minimum Air Flow Rate [m3/s], 0.16871
 Component Sizing Information, AirTerminal:SingleDuct:VAV:Reheat, LOBBY_2_Z13_VAVTERMINAL, Design Size Maximum Flow per Zone Floor Area during Reheat [m3/s-m2], 9.99999E-004
 Component Sizing Information, AirTerminal:SingleDuct:VAV:Reheat, LOBBY_2_Z13_VAVTERMINAL, Design Size Maximum Flow Fraction during Reheat [], 0.20000
 Component Sizing Information, AirTerminal:SingleDuct:VAV:Reheat, LOBBY_2_Z13_VAVTERMINAL, User-Specified Maximum Reheat Water Flow Rate [m3/s], 13.49654
 Component Sizing Information, Coil:Heating:Electric, LOBBY_2_Z13_REHEATCOIL, User-Specified Nominal Capacity [W], 4048.96107
 Component Sizing Information, AirTerminal:SingleDuct:VAV:Reheat, CONFERENCE_2_Z14_VAVTERMINAL, User-Specified Maximum Air Flow Rate [m3/s], 0.36797
 Component Sizing Information, AirTerminal:SingleDuct:VAV:Reheat, CONFERENCE_2_Z14_VAVTERMINAL, Design Size Constant Minimum Air Flow Fraction, 0.20000
 Component Sizing Information, AirTerminal:SingleDuct:VAV:Reheat, CONFERENCE_2_Z14_VAVTERMINAL, User-Specified Constant Minimum Air Flow Fraction, 0.20000
 Component Sizing Information, AirTerminal:SingleDuct:VAV:Reheat, CONFERENCE_2_Z14_VAVTERMINAL, Design Size Minimum Air Flow Rate [m3/s], 7.35946E-002
 Component Sizing Information, AirTerminal:SingleDuct:VAV:Reheat, CONFERENCE_2_Z14_VAVTERMINAL, Design Size Maximum Flow per Zone Floor Area during Reheat [m3/s-m2], 1.00001E-003
 Component Sizing Information, AirTerminal:SingleDuct:VAV:Reheat, CONFERENCE_2_Z14_VAVTERMINAL, Design Size Maximum Flow Fraction during Reheat [], 0.20000
 Component Sizing Information, AirTerminal:SingleDuct:VAV:Reheat, CONFERENCE_2_Z14_VAVTERMINAL, User-Specified Maximum Reheat Water Flow Rate [m3/s], 5.88757
 Component Sizing Information, Coil:Heating:Electric, CONFERENCE_2_Z14_REHEATCOIL, User-Specified Nominal Capacity [W], 1766.27158
 Component Sizing Information, AirTerminal:SingleDuct:VAV:Reheat, MECHANICAL_2_Z15_VAVTERMINAL, User-Specified Maximum Air Flow Rate [m3/s], 0.49894
 Component Sizing Information, AirTerminal:SingleDuct:VAV:Reheat, MECHANICAL_2_Z15_VAVTERMINAL, Design Size Constant Minimum Air Flow Fraction, 0.20000
 Component Sizing Information, AirTerminal:SingleDuct:VAV:Reheat, MECHANICAL_2_Z15_VAVTERMINAL, User-Specified Constant Minimum Air Flow Fraction, 0.20000
 Component Sizing Information, AirTerminal:SingleDuct:VAV:Reheat, MECHANICAL_2_Z15_VAVTERMINAL, Design Size Minimum Air Flow Rate [m3/s], 9.97882E-002
 Component Sizing Information, AirTerminal:SingleDuct:VAV:Reheat, MECHANICAL_2_Z15_VAVTERMINAL, Design Size Maximum Flow per Zone Floor Area during Reheat [m3/s-m2], 1.00000E-003
 Component Sizing Information, AirTerminal:SingleDuct:VAV:Reheat, MECHANICAL_2_Z15_VAVTERMINAL, Design Size Maximum Flow Fraction during Reheat [], 0.20000
 Component Sizing Information, AirTerminal:SingleDuct:VAV:Reheat, MECHANICAL_2_Z15_VAVTERMINAL, User-Specified Maximum Reheat Water Flow Rate [m3/s], 7.98306
 Component Sizing Information, Coil:Heating:Electric, MECHANICAL_2_Z15_REHEATCOIL, User-Specified Nominal Capacity [W], 2394.91697
 Component Sizing Information, AirTerminal:SingleDuct:VAV:Reheat, OFFICE_OPEN_2_Z16_VAVTERMINAL, User-Specified Maximum Air Flow Rate [m3/s], 0.86998
 Component Sizing Information, AirTerminal:SingleDuct:VAV:Reheat, OFFICE_OPEN_2_Z16_VAVTERMINAL, Design Size Constant Minimum Air Flow Fraction, 0.20000
 Component Sizing Information, AirTerminal:SingleDuct:VAV:Reheat, OFFICE_OPEN_2_Z16_VAVTERMINAL, User-Specified Constant Minimum Air Flow Fraction, 0.20000
 Component Sizing Information, AirTerminal:SingleDuct:VAV:Reheat, OFFICE_OPEN_2_Z16_VAVTERMINAL, Design Size Minimum Air Flow Rate [m3/s], 0.17400
 Component Sizing Information, AirTerminal:SingleDuct:VAV:Reheat, OFFICE_OPEN_2_Z16_VAVTERMINAL, Design Size Maximum Flow per Zone Floor Area during Reheat [m3/s-m2], 1.00000E-003
 Component Sizing Information, AirTerminal:SingleDuct:VAV:Reheat, OFFICE_OPEN_2_Z16_VAVTERMINAL, Design Size Maximum Flow Fraction during Reheat [], 0.20000
 Component Sizing Information, AirTerminal:SingleDuct:VAV:Reheat, OFFICE_OPEN_2_Z16_VAVTERMINAL, User-Specified Maximum Reheat Water Flow Rate [m3/s], 13.91968
 Component Sizing Information, Coil:Heating:Electric, OFFICE_OPEN_2_Z16_REHEATCOIL, User-Specified Nominal Capacity [W], 4175.90543
 Component Sizing Information, AirTerminal:SingleDuct:VAV:Reheat, OFFICE_PRIVATE_2_Z17_VAVTERMINAL, User-Specified Maximum Air Flow Rate [m3/s], 0.19611
 Component Sizing Information, AirTerminal:SingleDuct:VAV:Reheat, OFFICE_PRIVATE_2_Z17_VAVTERMINAL, Design Size Constant Minimum Air Flow Fraction, 0.20000
 Component Sizing Information, AirTerminal:SingleDuct:VAV:Reheat, OFFICE_PRIVATE_2_Z17_VAVTERMINAL, User-Specified Constant Minimum Air Flow Fraction, 0.20000
 Component Sizing Information, AirTerminal:SingleDuct:VAV:Reheat, OFFICE_PRIVATE_2_Z17_VAVTERMINAL, Design Size Minimum Air Flow Rate [m3/s], 3.92229E-002
 Component Sizing Information, AirTerminal:SingleDuct:VAV:Reheat, OFFICE_PRIVATE_2_Z17_VAVTERMINAL, Design Size Maximum Flow per Zone Floor Area during Reheat [m3/s-m2], 1.00001E-003
 Component Sizing Information, AirTerminal:SingleDuct:VAV:Reheat, OFFICE_PRIVATE_2_Z17_VAVTERMINAL, Design Size Maximum Flow Fraction during Reheat [], 0.20000
 Component Sizing Information, AirTerminal:SingleDuct:VAV:Reheat, OFFICE_PRIVATE_2_Z17_VAVTERMINAL, User-Specified Maximum Reheat Water Flow Rate [m3/s], 3.13783
 Component Sizing Information, Coil:Heating:Electric, OFFICE_PRIVATE_2_Z17_REHEATCOIL, User-Specified Nominal Capacity [W], 941.35038
 Component Sizing Information, AirTerminal:SingleDuct:VAV:Reheat, STORAGE_2_Z18_VAVTERMINAL, User-Specified Maximum Air Flow Rate [m3/s], 0.21802
 Component Sizing Information, AirTerminal:SingleDuct:VAV:Reheat, STORAGE_2_Z18_VAVTERMINAL, Design Size Constant Minimum Air Flow Fraction, 0.20000
 Component Sizing Information, AirTerminal:SingleDuct:VAV:Reheat, STORAGE_2_Z18_VAVTERMINAL, User-Specified Constant Minimum Air Flow Fraction, 0.20000
 Component Sizing Information, AirTerminal:SingleDuct:VAV:Reheat, STORAGE_2_Z18_VAVTERMINAL, Design Size Minimum Air Flow Rate [m3/s], 4.36037E-002
 Component Sizing Information, AirTerminal:SingleDuct:VAV:Reheat, STORAGE_2_Z18_VAVTERMINAL, Design Size Maximum Flow per Zone Floor Area during Reheat [m3/s-m2], 9.99992E-004
 Component Sizing Information, AirTerminal:SingleDuct:VAV:Reheat, STORAGE_2_Z18_VAVTERMINAL, Design Size Maximum Flow Fraction during Reheat [], 0.20000
 Component Sizing Information, AirTerminal:SingleDuct:VAV:Reheat, STORAGE_2_Z18_VAVTERMINAL, User-Specified Maximum Reheat Water Flow Rate [m3/s], 3.48829
 Component Sizing Information, Coil:Heating:Electric, STORAGE_2_Z18_REHEATCOIL, User-Specified Nominal Capacity [W], 1046.48807
 Component Sizing Information, AirTerminal:SingleDuct:VAV:Reheat, LOBBY_3_Z19_VAVTERMINAL, User-Specified Maximum Air Flow Rate [m3/s], 0.92253
 Component Sizing Information, AirTerminal:SingleDuct:VAV:Reheat, LOBBY_3_Z19_VAVTERMINAL, Design Size Constant Minimum Air Flow Fraction, 0.20000
 Component Sizing Information, AirTerminal:SingleDuct:VAV:Reheat, LOBBY_3_Z19_VAVTERMINAL, User-Specified Constant Minimum Air Flow Fraction, 0.20000
 Component Sizing Information, AirTerminal:SingleDuct:VAV:Reheat, LOBBY_3_Z19_VAVTERMINAL, Design Size Minimum Air Flow Rate [m3/s], 0.18451
 Component Sizing Information, AirTerminal:SingleDuct:VAV:Reheat, LOBBY_3_Z19_VAVTERMINAL, Design Size Maximum Flow per Zone Floor Area during Reheat [m3/s-m2], 1.00001E-003
 Component Sizing Information, AirTerminal:SingleDuct:VAV:Reheat, LOBBY_3_Z19_VAVTERMINAL, Design Size Maximum Flow Fraction during Reheat [], 0.20000
 Component Sizing Information, AirTerminal:SingleDuct:VAV:Reheat, LOBBY_3_Z19_VAVTERMINAL, User-Specified Maximum Reheat Water Flow Rate [m3/s], 14.76043
 Component Sizing Information, Coil:Heating:Electric, LOBBY_3_Z19_REHEATCOIL, User-Specified Nominal Capacity [W], 4428.12819
 Component Sizing Information, AirTerminal:SingleDuct:VAV:Reheat, CONFERENCE_3_Z20_VAVTERMINAL, User-Specified Maximum Air Flow Rate [m3/s], 0.48531
 Component Sizing Information, AirTerminal:SingleDuct:VAV:Reheat, CONFERENCE_3_Z20_VAVTERMINAL, Design Size Constant Minimum Air Flow Fraction, 0.20000
 Component Sizing Information, AirTerminal:SingleDuct:VAV:Reheat, CONFERENCE_3_Z20_VAVTERMINAL, User-Specified Constant Minimum Air Flow Fraction, 0.20000
 Component Sizing Information, AirTerminal:SingleDuct:VAV:Reheat, CONFERENCE_3_Z20_VAVTERMINAL, Design Size Minimum Air Flow Rate [m3/s], 9.70614E-002
 Component Sizing Information, AirTerminal:SingleDuct:VAV:Reheat, CONFERENCE_3_Z20_VAVTERMINAL, Design Size Maximum Flow per Zone Floor Area during Reheat [m3/s-m2], 1.00000E-003
 Component Sizing Information, AirTerminal:SingleDuct:VAV:Reheat, CONFERENCE_3_Z20_VAVTERMINAL, Design Size Maximum Flow Fraction during Reheat [], 0.20000
 Component Sizing Information, AirTerminal:SingleDuct:VAV:Reheat, CONFERENCE_3_Z20_VAVTERMINAL, User-Specified Maximum Reheat Water Flow Rate [m3/s], 7.76491
 Component Sizing Information, Coil:Heating:Electric, CONFERENCE_3_Z20_REHEATCOIL, User-Specified Nominal Capacity [W], 2329.47437
 Component Sizing Information, AirTerminal:SingleDuct:VAV:Reheat, BREAK_ROOM_3_Z21_VAVTERMINAL, User-Specified Maximum Air Flow Rate [m3/s], 0.18868
 Component Sizing Information, AirTerminal:SingleDuct:VAV:Reheat, BREAK_ROOM_3_Z21_VAVTERMINAL, Design Size Constant Minimum Air Flow Fraction, 0.20000
 Component Sizing Information, AirTerminal:SingleDuct:VAV:Reheat, BREAK_ROOM_3_Z21_VAVTERMINAL, User-Specified Constant Minimum Air Flow Fraction, 0.20000
 Component Sizing Information, AirTerminal:SingleDuct:VAV:Reheat, BREAK_ROOM_3_Z21_VAVTERMINAL, Design Size Minimum Air Flow Rate [m3/s], 3.77362E-002
 Component Sizing Information, AirTerminal:SingleDuct:VAV:Reheat, BREAK_ROOM_3_Z21_VAVTERMINAL, Design Size Maximum Flow per Zone Floor Area during Reheat [m3/s-m2], 9.99999E-004
 Component Sizing Information, AirTerminal:SingleDuct:VAV:Reheat, BREAK_ROOM_3_Z21_VAVTERMINAL, Design Size Maximum Flow Fraction during Reheat [], 0.20000
 Component Sizing Information, AirTerminal:SingleDuct:VAV:Reheat, BREAK_ROOM_3_Z21_VAVTERMINAL, User-Specified Maximum Reheat Water Flow Rate [m3/s], 3.01890
 Component Sizing Information, Coil:Heating:Electric, BREAK_ROOM_3_Z21_REHEATCOIL, User-Specified Nominal Capacity [W], 905.66990
 Component Sizing Information, AirTerminal:SingleDuct:VAV:Reheat, OFFICE_OPEN_3_Z22_VAVTERMINAL, User-Specified Maximum Air Flow Rate [m3/s], 0.53087
 Component Sizing Information, AirTerminal:SingleDuct:VAV:Reheat, OFFICE_OPEN_3_Z22_VAVTERMINAL, Design Size Constant Minimum Air Flow Fraction, 0.20000
 Component Sizing Information, AirTerminal:SingleDuct:VAV:Reheat, OFFICE_OPEN_3_Z22_VAVTERMINAL, User-Specified Constant Minimum Air Flow Fraction, 0.20000
 Component Sizing Information, AirTerminal:SingleDuct:VAV:Reheat, OFFICE_OPEN_3_Z22_VAVTERMINAL, Design Size Minimum Air Flow Rate [m3/s], 0.10617
 Component Sizing Information, AirTerminal:SingleDuct:VAV:Reheat, OFFICE_OPEN_3_Z22_VAVTERMINAL, Design Size Maximum Flow per Zone Floor Area during Reheat [m3/s-m2], 1.00000E-003
 Component Sizing Information, AirTerminal:SingleDuct:VAV:Reheat, OFFICE_OPEN_3_Z22_VAVTERMINAL, Design Size Maximum Flow Fraction during Reheat [], 0.20000
 Component Sizing Information, AirTerminal:SingleDuct:VAV:Reheat, OFFICE_OPEN_3_Z22_VAVTERMINAL, User-Specified Maximum Reheat Water Flow Rate [m3/s], 8.49399
 Component Sizing Information, Coil:Heating:Electric, OFFICE_OPEN_3_Z22_REHEATCOIL, User-Specified Nominal Capacity [W], 2548.19669
 Component Sizing Information, AirTerminal:SingleDuct:VAV:Reheat, OFFICE_PRIVATE_3_Z23_VAVTERMINAL, User-Specified Maximum Air Flow Rate [m3/s], 0.14010
 Component Sizing Information, AirTerminal:SingleDuct:VAV:Reheat, OFFICE_PRIVATE_3_Z23_VAVTERMINAL, Design Size Constant Minimum Air Flow Fraction, 0.20000
 Component Sizing Information, AirTerminal:SingleDuct:VAV:Reheat, OFFICE_PRIVATE_3_Z23_VAVTERMINAL, User-Specified Constant Minimum Air Flow Fraction, 0.20000
 Component Sizing Information, AirTerminal:SingleDuct:VAV:Reheat, OFFICE_PRIVATE_3_Z23_VAVTERMINAL, Design Size Minimum Air Flow Rate [m3/s], 2.80194E-002
 Component Sizing Information, AirTerminal:SingleDuct:VAV:Reheat, OFFICE_PRIVATE_3_Z23_VAVTERMINAL, Design Size Maximum Flow per Zone Floor Area during Reheat [m3/s-m2], 1.00002E-003
 Component Sizing Information, AirTerminal:SingleDuct:VAV:Reheat, OFFICE_PRIVATE_3_Z23_VAVTERMINAL, Design Size Maximum Flow Fraction during Reheat [], 0.20000
 Component Sizing Information, AirTerminal:SingleDuct:VAV:Reheat, OFFICE_PRIVATE_3_Z23_VAVTERMINAL, User-Specified Maximum Reheat Water Flow Rate [m3/s], 2.24156
 Component Sizing Information, Coil:Heating:Electric, OFFICE_PRIVATE_3_Z23_REHEATCOIL, User-Specified Nominal Capacity [W], 672.46656
 Component Sizing Information, AirTerminal:SingleDuct:VAV:Reheat, LOBBY_4_Z24_VAVTERMINAL, User-Specified Maximum Air Flow Rate [m3/s], 0.58790
 Component Sizing Information, AirTerminal:SingleDuct:VAV:Reheat, LOBBY_4_Z24_VAVTERMINAL, Design Size Constant Minimum Air Flow Fraction, 0.20000
 Component Sizing Information, AirTerminal:SingleDuct:VAV:Reheat, LOBBY_4_Z24_VAVTERMINAL, User-Specified Constant Minimum Air Flow Fraction, 0.20000
 Component Sizing Information, AirTerminal:SingleDuct:VAV:Reheat, LOBBY_4_Z24_VAVTERMINAL, Design Size Minimum Air Flow Rate [m3/s], 0.11758
 Component Sizing Information, AirTerminal:SingleDuct:VAV:Reheat, LOBBY_4_Z24_VAVTERMINAL, Design Size Maximum Flow per Zone Floor Area during Reheat [m3/s-m2], 1.00000E-003
 Component Sizing Information, AirTerminal:SingleDuct:VAV:Reheat, LOBBY_4_Z24_VAVTERMINAL, Design Size Maximum Flow Fraction during Reheat [], 0.20000
 Component Sizing Information, AirTerminal:SingleDuct:VAV:Reheat, LOBBY_4_Z24_VAVTERMINAL, User-Specified Maximum Reheat Water Flow Rate [m3/s], 9.40639
 Component Sizing Information, Coil:Heating:Electric, LOBBY_4_Z24_REHEATCOIL, User-Specified Nominal Capacity [W], 2821.91651
 Component Sizing Information, AirTerminal:SingleDuct:VAV:Reheat, BREAK_ROOM_4_Z25_VAVTERMINAL, User-Specified Maximum Air Flow Rate [m3/s], 0.33396
 Component Sizing Information, AirTerminal:SingleDuct:VAV:Reheat, BREAK_ROOM_4_Z25_VAVTERMINAL, Design Size Constant Minimum Air Flow Fraction, 0.20000
 Component Sizing Information, AirTerminal:SingleDuct:VAV:Reheat, BREAK_ROOM_4_Z25_VAVTERMINAL, User-Specified Constant Minimum Air Flow Fraction, 0.20000
 Component Sizing Information, AirTerminal:SingleDuct:VAV:Reheat, BREAK_ROOM_4_Z25_VAVTERMINAL, Design Size Minimum Air Flow Rate [m3/s], 6.67916E-002
 Component Sizing Information, AirTerminal:SingleDuct:VAV:Reheat, BREAK_ROOM_4_Z25_VAVTERMINAL, Design Size Maximum Flow per Zone Floor Area during Reheat [m3/s-m2], 9.99995E-004
 Component Sizing Information, AirTerminal:SingleDuct:VAV:Reheat, BREAK_ROOM_4_Z25_VAVTERMINAL, Design Size Maximum Flow Fraction during Reheat [], 0.20000
 Component Sizing Information, AirTerminal:SingleDuct:VAV:Reheat, BREAK_ROOM_4_Z25_VAVTERMINAL, User-Specified Maximum Reheat Water Flow Rate [m3/s], 5.34333
 Component Sizing Information, Coil:Heating:Electric, BREAK_ROOM_4_Z25_REHEATCOIL, User-Specified Nominal Capacity [W], 1602.99942
 Component Sizing Information, AirTerminal:SingleDuct:VAV:Reheat, MECHANICAL_4_Z26_VAVTERMINAL, User-Specified Maximum Air Flow Rate [m3/s], 0.43503
[...]
 Sky Daylight Factors,Clear Sky,01/01,BREAK_ROOM_3_DAYLIGHT,BREAK_ROOM_3,BREAK_ROOM_3_WINDOW_4,BREAK_ROOM_3_REFERENCEPOINT1,7.1684E-003
 Sky Daylight Factors,Clear Turbid Sky,01/01,BREAK_ROOM_3_DAYLIGHT,BREAK_ROOM_3,BREAK_ROOM_3_WINDOW_4,BREAK_ROOM_3_REFERENCEPOINT1,6.7183E-003
 Sky Daylight Factors,Intermediate Sky,01/01,BREAK_ROOM_3_DAYLIGHT,BREAK_ROOM_3,BREAK_ROOM_3_WINDOW_4,BREAK_ROOM_3_REFERENCEPOINT1,6.7470E-003
 Sky Daylight Factors,Overcast Sky,01/01,BREAK_ROOM_3_DAYLIGHT,BREAK_ROOM_3,BREAK_ROOM_3_WINDOW_4,BREAK_ROOM_3_REFERENCEPOINT1,5.7798E-003
 Sky Daylight Factors,Clear Sky,01/01,OFFICE_OPEN_3_DAYLIGHT,OFFICE_OPEN_3,OFFICE_OPEN_3_WINDOW_1,OFFICE_OPEN_3_REFERENCEPOINT1,4.9873E-003
 Sky Daylight Factors,Clear Turbid Sky,01/01,OFFICE_OPEN_3_DAYLIGHT,OFFICE_OPEN_3,OFFICE_OPEN_3_WINDOW_1,OFFICE_OPEN_3_REFERENCEPOINT1,5.5707E-003
 Sky Daylight Factors,Intermediate Sky,01/01,OFFICE_OPEN_3_DAYLIGHT,OFFICE_OPEN_3,OFFICE_OPEN_3_WINDOW_1,OFFICE_OPEN_3_REFERENCEPOINT1,3.5430E-003
 Sky Daylight Factors,Overcast Sky,01/01,OFFICE_OPEN_3_DAYLIGHT,OFFICE_OPEN_3,OFFICE_OPEN_3_WINDOW_1,OFFICE_OPEN_3_REFERENCEPOINT1,1.8189E-003
 Sky Daylight Factors,Clear Sky,01/01,OFFICE_OPEN_3_DAYLIGHT,OFFICE_OPEN_3,OFFICE_OPEN_3_WINDOW_2,OFFICE_OPEN_3_REFERENCEPOINT1,5.9112E-003
 Sky Daylight Factors,Clear Turbid Sky,01/01,OFFICE_OPEN_3_DAYLIGHT,OFFICE_OPEN_3,OFFICE_OPEN_3_WINDOW_2,OFFICE_OPEN_3_REFERENCEPOINT1,5.5361E-003
 Sky Daylight Factors,Intermediate Sky,01/01,OFFICE_OPEN_3_DAYLIGHT,OFFICE_OPEN_3,OFFICE_OPEN_3_WINDOW_2,OFFICE_OPEN_3_REFERENCEPOINT1,5.5760E-003
 Sky Daylight Factors,Overcast Sky,01/01,OFFICE_OPEN_3_DAYLIGHT,OFFICE_OPEN_3,OFFICE_OPEN_3_WINDOW_2,OFFICE_OPEN_3_REFERENCEPOINT1,4.8130E-003
 Sky Daylight Factors,Clear Sky,01/01,OFFICE_OPEN_3_DAYLIGHT,OFFICE_OPEN_3,OFFICE_OPEN_3_WINDOW_3,OFFICE_OPEN_3_REFERENCEPOINT1,3.7715E-003
 Sky Daylight Factors,Clear Turbid Sky,01/01,OFFICE_OPEN_3_DAYLIGHT,OFFICE_OPEN_3,OFFICE_OPEN_3_WINDOW_3,OFFICE_OPEN_3_REFERENCEPOINT1,3.0685E-003
 Sky Daylight Factors,Intermediate Sky,01/01,OFFICE_OPEN_3_DAYLIGHT,OFFICE_OPEN_3,OFFICE_OPEN_3_WINDOW_3,OFFICE_OPEN_3_REFERENCEPOINT1,2.7518E-003
 Sky Daylight Factors,Overcast Sky,01/01,OFFICE_OPEN_3_DAYLIGHT,OFFICE_OPEN_3,OFFICE_OPEN_3_WINDOW_3,OFFICE_OPEN_3_REFERENCEPOINT1,3.8066E-003
 Sky Daylight Factors,Clear Sky,01/01,OFFICE_OPEN_3_DAYLIGHT,OFFICE_OPEN_3,OFFICE_OPEN_3_WINDOW_4,OFFICE_OPEN_3_REFERENCEPOINT1,5.8261E-003
 Sky Daylight Factors,Clear Turbid Sky,01/01,OFFICE_OPEN_3_DAYLIGHT,OFFICE_OPEN_3,OFFICE_OPEN_3_WINDOW_4,OFFICE_OPEN_3_REFERENCEPOINT1,5.4595E-003
 Sky Daylight Factors,Intermediate Sky,01/01,OFFICE_OPEN_3_DAYLIGHT,OFFICE_OPEN_3,OFFICE_OPEN_3_WINDOW_4,OFFICE_OPEN_3_REFERENCEPOINT1,5.4829E-003
 Sky Daylight Factors,Overcast Sky,01/01,OFFICE_OPEN_3_DAYLIGHT,OFFICE_OPEN_3,OFFICE_OPEN_3_WINDOW_4,OFFICE_OPEN_3_REFERENCEPOINT1,4.6952E-003
 Sky Daylight Factors,Clear Sky,01/01,OFFICE_PRIVATE_3_DAYLIGHT,OFFICE_PRIVATE_3,OFFICE_PRIVATE_3_WINDOW_1,OFFICE_PRIVATE_3_REFERENCEPOINT1,7.6028E-003
 Sky Daylight Factors,Clear Turbid Sky,01/01,OFFICE_PRIVATE_3_DAYLIGHT,OFFICE_PRIVATE_3,OFFICE_PRIVATE_3_WINDOW_1,OFFICE_PRIVATE_3_REFERENCEPOINT1,8.4637E-003
 Sky Daylight Factors,Intermediate Sky,01/01,OFFICE_PRIVATE_3_DAYLIGHT,OFFICE_PRIVATE_3,OFFICE_PRIVATE_3_WINDOW_1,OFFICE_PRIVATE_3_REFERENCEPOINT1,5.4065E-003
 Sky Daylight Factors,Overcast Sky,01/01,OFFICE_PRIVATE_3_DAYLIGHT,OFFICE_PRIVATE_3,OFFICE_PRIVATE_3_WINDOW_1,OFFICE_PRIVATE_3_REFERENCEPOINT1,2.8262E-003
 Sky Daylight Factors,Clear Sky,01/01,OFFICE_PRIVATE_3_DAYLIGHT,OFFICE_PRIVATE_3,OFFICE_PRIVATE_3_WINDOW_2,OFFICE_PRIVATE_3_REFERENCEPOINT1,7.0881E-003
 Sky Daylight Factors,Clear Turbid Sky,01/01,OFFICE_PRIVATE_3_DAYLIGHT,OFFICE_PRIVATE_3,OFFICE_PRIVATE_3_WINDOW_2,OFFICE_PRIVATE_3_REFERENCEPOINT1,6.7650E-003
 Sky Daylight Factors,Intermediate Sky,01/01,OFFICE_PRIVATE_3_DAYLIGHT,OFFICE_PRIVATE_3,OFFICE_PRIVATE_3_WINDOW_2,OFFICE_PRIVATE_3_REFERENCEPOINT1,6.3687E-003
 Sky Daylight Factors,Overcast Sky,01/01,OFFICE_PRIVATE_3_DAYLIGHT,OFFICE_PRIVATE_3,OFFICE_PRIVATE_3_WINDOW_2,OFFICE_PRIVATE_3_REFERENCEPOINT1,4.7894E-003
 Sky Daylight Factors,Clear Sky,01/01,OFFICE_PRIVATE_3_DAYLIGHT,OFFICE_PRIVATE_3,OFFICE_PRIVATE_3_WINDOW_3,OFFICE_PRIVATE_3_REFERENCEPOINT1,4.6421E-003
 Sky Daylight Factors,Clear Turbid Sky,01/01,OFFICE_PRIVATE_3_DAYLIGHT,OFFICE_PRIVATE_3,OFFICE_PRIVATE_3_WINDOW_3,OFFICE_PRIVATE_3_REFERENCEPOINT1,3.7304E-003
 Sky Daylight Factors,Intermediate Sky,01/01,OFFICE_PRIVATE_3_DAYLIGHT,OFFICE_PRIVATE_3,OFFICE_PRIVATE_3_WINDOW_3,OFFICE_PRIVATE_3_REFERENCEPOINT1,3.1533E-003
 Sky Daylight Factors,Overcast Sky,01/01,OFFICE_PRIVATE_3_DAYLIGHT,OFFICE_PRIVATE_3,OFFICE_PRIVATE_3_WINDOW_3,OFFICE_PRIVATE_3_REFERENCEPOINT1,4.3862E-003
 Sky Daylight Factors,Clear Sky,01/01,OFFICE_PRIVATE_3_DAYLIGHT,OFFICE_PRIVATE_3,OFFICE_PRIVATE_3_WINDOW_4,OFFICE_PRIVATE_3_REFERENCEPOINT1,7.9347E-003
 Sky Daylight Factors,Clear Turbid Sky,01/01,OFFICE_PRIVATE_3_DAYLIGHT,OFFICE_PRIVATE_3,OFFICE_PRIVATE_3_WINDOW_4,OFFICE_PRIVATE_3_REFERENCEPOINT1,7.4334E-003
 Sky Daylight Factors,Intermediate Sky,01/01,OFFICE_PRIVATE_3_DAYLIGHT,OFFICE_PRIVATE_3,OFFICE_PRIVATE_3_WINDOW_4,OFFICE_PRIVATE_3_REFERENCEPOINT1,7.4653E-003
 Sky Daylight Factors,Overcast Sky,01/01,OFFICE_PRIVATE_3_DAYLIGHT,OFFICE_PRIVATE_3,OFFICE_PRIVATE_3_WINDOW_4,OFFICE_PRIVATE_3_REFERENCEPOINT1,6.3881E-003
 Sky Daylight Factors,Clear Sky,01/01,LOBBY_4_DAYLIGHT,LOBBY_4,LOBBY_4_WINDOW_1,LOBBY_4_REFERENCEPOINT1,5.9329E-003
 Sky Daylight Factors,Clear Turbid Sky,01/01,LOBBY_4_DAYLIGHT,LOBBY_4,LOBBY_4_WINDOW_1,LOBBY_4_REFERENCEPOINT1,6.6307E-003
 Sky Daylight Factors,Intermediate Sky,01/01,LOBBY_4_DAYLIGHT,LOBBY_4,LOBBY_4_WINDOW_1,LOBBY_4_REFERENCEPOINT1,4.1530E-003
 Sky Daylight Factors,Overcast Sky,01/01,LOBBY_4_DAYLIGHT,LOBBY_4,LOBBY_4_WINDOW_1,LOBBY_4_REFERENCEPOINT1,2.0620E-003
 Sky Daylight Factors,Clear Sky,01/01,LOBBY_4_DAYLIGHT,LOBBY_4,LOBBY_4_WINDOW_2,LOBBY_4_REFERENCEPOINT1,4.6190E-003
 Sky Daylight Factors,Clear Turbid Sky,01/01,LOBBY_4_DAYLIGHT,LOBBY_4,LOBBY_4_WINDOW_2,LOBBY_4_REFERENCEPOINT1,4.3070E-003
 Sky Daylight Factors,Intermediate Sky,01/01,LOBBY_4_DAYLIGHT,LOBBY_4,LOBBY_4_WINDOW_2,LOBBY_4_REFERENCEPOINT1,4.3402E-003
 Sky Daylight Factors,Overcast Sky,01/01,LOBBY_4_DAYLIGHT,LOBBY_4,LOBBY_4_WINDOW_2,LOBBY_4_REFERENCEPOINT1,3.7057E-003
 Sky Daylight Factors,Clear Sky,01/01,LOBBY_4_DAYLIGHT,LOBBY_4,LOBBY_4_WINDOW_3,LOBBY_4_REFERENCEPOINT1,4.0243E-003
 Sky Daylight Factors,Clear Turbid Sky,01/01,LOBBY_4_DAYLIGHT,LOBBY_4,LOBBY_4_WINDOW_3,LOBBY_4_REFERENCEPOINT1,3.2094E-003
 Sky Daylight Factors,Intermediate Sky,01/01,LOBBY_4_DAYLIGHT,LOBBY_4,LOBBY_4_WINDOW_3,LOBBY_4_REFERENCEPOINT1,2.8424E-003
 Sky Daylight Factors,Overcast Sky,01/01,LOBBY_4_DAYLIGHT,LOBBY_4,LOBBY_4_WINDOW_3,LOBBY_4_REFERENCEPOINT1,4.0650E-003
 Sky Daylight Factors,Clear Sky,01/01,LOBBY_4_DAYLIGHT,LOBBY_4,LOBBY_4_WINDOW_4,LOBBY_4_REFERENCEPOINT1,4.9556E-003
 Sky Daylight Factors,Clear Turbid Sky,01/01,LOBBY_4_DAYLIGHT,LOBBY_4,LOBBY_4_WINDOW_4,LOBBY_4_REFERENCEPOINT1,4.6507E-003
 Sky Daylight Factors,Intermediate Sky,01/01,LOBBY_4_DAYLIGHT,LOBBY_4,LOBBY_4_WINDOW_4,LOBBY_4_REFERENCEPOINT1,4.6702E-003
 Sky Daylight Factors,Overcast Sky,01/01,LOBBY_4_DAYLIGHT,LOBBY_4,LOBBY_4_WINDOW_4,LOBBY_4_REFERENCEPOINT1,4.0151E-003
 Sky Daylight Factors,Clear Sky,01/01,BREAK_ROOM_4_DAYLIGHT,BREAK_ROOM_4,BREAK_ROOM_4_WINDOW_1,BREAK_ROOM_4_REFERENCEPOINT1,6.7993E-003
 Sky Daylight Factors,Clear Turbid Sky,01/01,BREAK_ROOM_4_DAYLIGHT,BREAK_ROOM_4,BREAK_ROOM_4_WINDOW_1,BREAK_ROOM_4_REFERENCEPOINT1,7.5690E-003
 Sky Daylight Factors,Intermediate Sky,01/01,BREAK_ROOM_4_DAYLIGHT,BREAK_ROOM_4,BREAK_ROOM_4_WINDOW_1,BREAK_ROOM_4_REFERENCEPOINT1,4.8358E-003
 Sky Daylight Factors,Overcast Sky,01/01,BREAK_ROOM_4_DAYLIGHT,BREAK_ROOM_4,BREAK_ROOM_4_WINDOW_1,BREAK_ROOM_4_REFERENCEPOINT1,2.5290E-003
 Sky Daylight Factors,Clear Sky,01/01,BREAK_ROOM_4_DAYLIGHT,BREAK_ROOM_4,BREAK_ROOM_4_WINDOW_2,BREAK_ROOM_4_REFERENCEPOINT1,6.0264E-003
 Sky Daylight Factors,Clear Turbid Sky,01/01,BREAK_ROOM_4_DAYLIGHT,BREAK_ROOM_4,BREAK_ROOM_4_WINDOW_2,BREAK_ROOM_4_REFERENCEPOINT1,5.6397E-003
 Sky Daylight Factors,Intermediate Sky,01/01,BREAK_ROOM_4_DAYLIGHT,BREAK_ROOM_4,BREAK_ROOM_4_WINDOW_2,BREAK_ROOM_4_REFERENCEPOINT1,5.6809E-003
 Sky Daylight Factors,Overcast Sky,01/01,BREAK_ROOM_4_DAYLIGHT,BREAK_ROOM_4,BREAK_ROOM_4_WINDOW_2,BREAK_ROOM_4_REFERENCEPOINT1,4.8943E-003
 Sky Daylight Factors,Clear Sky,01/01,BREAK_ROOM_4_DAYLIGHT,BREAK_ROOM_4,BREAK_ROOM_4_WINDOW_3,BREAK_ROOM_4_REFERENCEPOINT1,4.6894E-003
 Sky Daylight Factors,Clear Turbid Sky,01/01,BREAK_ROOM_4_DAYLIGHT,BREAK_ROOM_4,BREAK_ROOM_4_WINDOW_3,BREAK_ROOM_4_REFERENCEPOINT1,3.7898E-003
 Sky Daylight Factors,Intermediate Sky,01/01,BREAK_ROOM_4_DAYLIGHT,BREAK_ROOM_4,BREAK_ROOM_4_WINDOW_3,BREAK_ROOM_4_REFERENCEPOINT1,3.3846E-003
 Sky Daylight Factors,Overcast Sky,01/01,BREAK_ROOM_4_DAYLIGHT,BREAK_ROOM_4,BREAK_ROOM_4_WINDOW_3,BREAK_ROOM_4_REFERENCEPOINT1,4.7343E-003
 Sky Daylight Factors,Clear Sky,01/01,BREAK_ROOM_4_DAYLIGHT,BREAK_ROOM_4,BREAK_ROOM_4_WINDOW_4,BREAK_ROOM_4_REFERENCEPOINT1,6.1565E-003
 Sky Daylight Factors,Clear Turbid Sky,01/01,BREAK_ROOM_4_DAYLIGHT,BREAK_ROOM_4,BREAK_ROOM_4_WINDOW_4,BREAK_ROOM_4_REFERENCEPOINT1,5.7786E-003
 Sky Daylight Factors,Intermediate Sky,01/01,BREAK_ROOM_4_DAYLIGHT,BREAK_ROOM_4,BREAK_ROOM_4_WINDOW_4,BREAK_ROOM_4_REFERENCEPOINT1,5.8027E-003
 Sky Daylight Factors,Overcast Sky,01/01,BREAK_ROOM_4_DAYLIGHT,BREAK_ROOM_4,BREAK_ROOM_4_WINDOW_4,BREAK_ROOM_4_REFERENCEPOINT1,4.9907E-003
 Sky Daylight Factors,Clear Sky,01/01,OFFICE_OPEN_4_DAYLIGHT,OFFICE_OPEN_4,OFFICE_OPEN_4_WINDOW_1,OFFICE_OPEN_4_REFERENCEPOINT1,5.3533E-003
 Sky Daylight Factors,Clear Turbid Sky,01/01,OFFICE_OPEN_4_DAYLIGHT,OFFICE_OPEN_4,OFFICE_OPEN_4_WINDOW_1,OFFICE_OPEN_4_REFERENCEPOINT1,5.9890E-003
 Sky Daylight Factors,Intermediate Sky,01/01,OFFICE_OPEN_4_DAYLIGHT,OFFICE_OPEN_4,OFFICE_OPEN_4_WINDOW_1,OFFICE_OPEN_4_REFERENCEPOINT1,3.7316E-003
 Sky Daylight Factors,Overcast Sky,01/01,OFFICE_OPEN_4_DAYLIGHT,OFFICE_OPEN_4,OFFICE_OPEN_4_WINDOW_1,OFFICE_OPEN_4_REFERENCEPOINT1,1.8264E-003
 Sky Daylight Factors,Clear Sky,01/01,OFFICE_OPEN_4_DAYLIGHT,OFFICE_OPEN_4,OFFICE_OPEN_4_WINDOW_2,OFFICE_OPEN_4_REFERENCEPOINT1,4.1089E-003
 Sky Daylight Factors,Clear Turbid Sky,01/01,OFFICE_OPEN_4_DAYLIGHT,OFFICE_OPEN_4,OFFICE_OPEN_4_WINDOW_2,OFFICE_OPEN_4_REFERENCEPOINT1,3.8402E-003
 Sky Daylight Factors,Intermediate Sky,01/01,OFFICE_OPEN_4_DAYLIGHT,OFFICE_OPEN_4,OFFICE_OPEN_4_WINDOW_2,OFFICE_OPEN_4_REFERENCEPOINT1,3.8688E-003
 Sky Daylight Factors,Overcast Sky,01/01,OFFICE_OPEN_4_DAYLIGHT,OFFICE_OPEN_4,OFFICE_OPEN_4_WINDOW_2,OFFICE_OPEN_4_REFERENCEPOINT1,3.3223E-003
 Sky Daylight Factors,Clear Sky,01/01,OFFICE_OPEN_4_DAYLIGHT,OFFICE_OPEN_4,OFFICE_OPEN_4_WINDOW_3,OFFICE_OPEN_4_REFERENCEPOINT1,3.9832E-003
 Sky Daylight Factors,Clear Turbid Sky,01/01,OFFICE_OPEN_4_DAYLIGHT,OFFICE_OPEN_4,OFFICE_OPEN_4_WINDOW_3,OFFICE_OPEN_4_REFERENCEPOINT1,3.2413E-003
 Sky Daylight Factors,Intermediate Sky,01/01,OFFICE_OPEN_4_DAYLIGHT,OFFICE_OPEN_4,OFFICE_OPEN_4_WINDOW_3,OFFICE_OPEN_4_REFERENCEPOINT1,2.9071E-003
 Sky Daylight Factors,Overcast Sky,01/01,OFFICE_OPEN_4_DAYLIGHT,OFFICE_OPEN_4,OFFICE_OPEN_4_WINDOW_3,OFFICE_OPEN_4_REFERENCEPOINT1,4.0202E-003
 Sky Daylight Factors,Clear Sky,01/01,OFFICE_OPEN_4_DAYLIGHT,OFFICE_OPEN_4,OFFICE_OPEN_4_WINDOW_4,OFFICE_OPEN_4_REFERENCEPOINT1,4.1097E-003
 Sky Daylight Factors,Clear Turbid Sky,01/01,OFFICE_OPEN_4_DAYLIGHT,OFFICE_OPEN_4,OFFICE_OPEN_4_WINDOW_4,OFFICE_OPEN_4_REFERENCEPOINT1,3.8471E-003
 Sky Daylight Factors,Intermediate Sky,01/01,OFFICE_OPEN_4_DAYLIGHT,OFFICE_OPEN_4,OFFICE_OPEN_4_WINDOW_4,OFFICE_OPEN_4_REFERENCEPOINT1,3.8638E-003
 Sky Daylight Factors,Overcast Sky,01/01,OFFICE_OPEN_4_DAYLIGHT,OFFICE_OPEN_4,OFFICE_OPEN_4_WINDOW_4,OFFICE_OPEN_4_REFERENCEPOINT1,3.2996E-003
 Sky Daylight Factors,Clear Sky,01/01,OFFICE_PRIVATE_4_DAYLIGHT,OFFICE_PRIVATE_4,OFFICE_PRIVATE_4_WINDOW_1,OFFICE_PRIVATE_4_REFERENCEPOINT1,9.2575E-003
 Sky Daylight Factors,Clear Turbid Sky,01/01,OFFICE_PRIVATE_4_DAYLIGHT,OFFICE_PRIVATE_4,OFFICE_PRIVATE_4_WINDOW_1,OFFICE_PRIVATE_4_REFERENCEPOINT1,1.0317E-002
 Sky Daylight Factors,Intermediate Sky,01/01,OFFICE_PRIVATE_4_DAYLIGHT,OFFICE_PRIVATE_4,OFFICE_PRIVATE_4_WINDOW_1,OFFICE_PRIVATE_4_REFERENCEPOINT1,6.5546E-003
 Sky Daylight Factors,Overcast Sky,01/01,OFFICE_PRIVATE_4_DAYLIGHT,OFFICE_PRIVATE_4,OFFICE_PRIVATE_4_WINDOW_1,OFFICE_PRIVATE_4_REFERENCEPOINT1,3.3792E-003
 Sky Daylight Factors,Clear Sky,01/01,OFFICE_PRIVATE_4_DAYLIGHT,OFFICE_PRIVATE_4,OFFICE_PRIVATE_4_WINDOW_2,OFFICE_PRIVATE_4_REFERENCEPOINT1,7.3520E-003
 Sky Daylight Factors,Clear Turbid Sky,01/01,OFFICE_PRIVATE_4_DAYLIGHT,OFFICE_PRIVATE_4,OFFICE_PRIVATE_4_WINDOW_2,OFFICE_PRIVATE_4_REFERENCEPOINT1,6.8779E-003
 Sky Daylight Factors,Intermediate Sky,01/01,OFFICE_PRIVATE_4_DAYLIGHT,OFFICE_PRIVATE_4,OFFICE_PRIVATE_4_WINDOW_2,OFFICE_PRIVATE_4_REFERENCEPOINT1,6.9284E-003
 Sky Daylight Factors,Overcast Sky,01/01,OFFICE_PRIVATE_4_DAYLIGHT,OFFICE_PRIVATE_4,OFFICE_PRIVATE_4_WINDOW_2,OFFICE_PRIVATE_4_REFERENCEPOINT1,5.9638E-003
 Sky Daylight Factors,Clear Sky,01/01,OFFICE_PRIVATE_4_DAYLIGHT,OFFICE_PRIVATE_4,OFFICE_PRIVATE_4_WINDOW_3,OFFICE_PRIVATE_4_REFERENCEPOINT1,6.5792E-003
 Sky Daylight Factors,Clear Turbid Sky,01/01,OFFICE_PRIVATE_4_DAYLIGHT,OFFICE_PRIVATE_4,OFFICE_PRIVATE_4_WINDOW_3,OFFICE_PRIVATE_4_REFERENCEPOINT1,5.3363E-003
 Sky Daylight Factors,Intermediate Sky,01/01,OFFICE_PRIVATE_4_DAYLIGHT,OFFICE_PRIVATE_4,OFFICE_PRIVATE_4_WINDOW_3,OFFICE_PRIVATE_4_REFERENCEPOINT1,4.7765E-003
 Sky Daylight Factors,Overcast Sky,01/01,OFFICE_PRIVATE_4_DAYLIGHT,OFFICE_PRIVATE_4,OFFICE_PRIVATE_4_WINDOW_3,OFFICE_PRIVATE_4_REFERENCEPOINT1,6.6412E-003
 Sky Daylight Factors,Clear Sky,01/01,OFFICE_PRIVATE_4_DAYLIGHT,OFFICE_PRIVATE_4,OFFICE_PRIVATE_4_WINDOW_4,OFFICE_PRIVATE_4_REFERENCEPOINT1,7.1461E-003
 Sky Daylight Factors,Clear Turbid Sky,01/01,OFFICE_PRIVATE_4_DAYLIGHT,OFFICE_PRIVATE_4,OFFICE_PRIVATE_4_WINDOW_4,OFFICE_PRIVATE_4_REFERENCEPOINT1,6.6827E-003
 Sky Daylight Factors,Intermediate Sky,01/01,OFFICE_PRIVATE_4_DAYLIGHT,OFFICE_PRIVATE_4,OFFICE_PRIVATE_4_WINDOW_4,OFFICE_PRIVATE_4_REFERENCEPOINT1,6.7123E-003
 Sky Daylight Factors,Overcast Sky,01/01,OFFICE_PRIVATE_4_DAYLIGHT,OFFICE_PRIVATE_4,OFFICE_PRIVATE_4_WINDOW_4,OFFICE_PRIVATE_4_REFERENCEPOINT1,5.7165E-003
Environment:WarmupDays,  7
! <Warmup Convergence Information>,Zone Name,Environment Type/Name,Average Warmup Temperature Difference {deltaC},Std Dev Warmup Temperature Difference {deltaC},Max Temperature Pass/Fail Convergence,Min Temperature Pass/Fail Convergence,Average Warmup Load Difference {W},Std Dev Warmup Load Difference {W},Heating Load Pass/Fail Convergence,Cooling Load Pass/Fail Convergence
 Warmup Convergence Information,LOBBY_0,RunPeriod: YEAR ROUND RUN PERIOD,6.8535667253E-002,7.8849207103E-002,Pass,Pass,7.2319360917E-003,8.4415368412E-003,Pass,Pass
 Warmup Convergence Information,CONFERENCE_0,RunPeriod: YEAR ROUND RUN PERIOD,8.1090800124E-002,9.2693680937E-002,Pass,Pass,8.6021298832E-003,1.0004852189E-002,Pass,Pass
 Warmup Convergence Information,BREAK_ROOM_0,RunPeriod: YEAR ROUND RUN PERIOD,0.1117901546,0.1233125687,Pass,Pass,1.1220082821E-002,1.2610701644E-002,Pass,Pass
 Warmup Convergence Information,MECHANICAL_0,RunPeriod: YEAR ROUND RUN PERIOD,0.1321500575,0.1530152791,Pass,Pass,1.1024857543E-002,1.3084536674E-002,Pass,Pass
 Warmup Convergence Information,OFFICE_OPEN_0,RunPeriod: YEAR ROUND RUN PERIOD,5.1859921237E-002,5.9365890144E-002,Pass,Pass,6.3260892148E-003,7.3418483114E-003,Pass,Pass
 Warmup Convergence Information,OFFICE_PRIVATE_0,RunPeriod: YEAR ROUND RUN PERIOD,0.1244530430,0.1445068873,Pass,Pass,1.1095914959E-002,1.3669943076E-002,Pass,Pass
 Warmup Convergence Information,STORAGE_0,RunPeriod: YEAR ROUND RUN PERIOD,0.2160527188,0.2324110281,Pass,Pass,1.7233161246E-002,1.9250324057E-002,Pass,Pass
 Warmup Convergence Information,LOBBY_1,RunPeriod: YEAR ROUND RUN PERIOD,7.6149725896E-002,8.9578367244E-002,Pass,Pass,7.4625727935E-003,8.9131194336E-003,Pass,Pass
 Warmup Convergence Information,CONFERENCE_1,RunPeriod: YEAR ROUND RUN PERIOD,8.2635574734E-002,9.9464054544E-002,Pass,Pass,7.9743518637E-003,1.0078810093E-002,Pass,Pass
 Warmup Convergence Information,BREAK_ROOM_1,RunPeriod: YEAR ROUND RUN PERIOD,0.1041887965,0.1208356002,Pass,Pass,1.0260126371E-002,1.2161318428E-002,Pass,Pass
 Warmup Convergence Information,MECHANICAL_1,RunPeriod: YEAR ROUND RUN PERIOD,8.6105341607E-002,9.7998304571E-002,Pass,Pass,8.0486201752E-003,9.2787114574E-003,Pass,Pass
 Warmup Convergence Information,STORAGE_1,RunPeriod: YEAR ROUND RUN PERIOD,0.1521503473,0.1665634993,Pass,Pass,1.2617318470E-002,1.4145716576E-002,Pass,Pass
 Warmup Convergence Information,LOBBY_2,RunPeriod: YEAR ROUND RUN PERIOD,5.9164223531E-002,6.8120162587E-002,Pass,Pass,6.2958746281E-003,7.3453802035E-003,Pass,Pass
 Warmup Convergence Information,CONFERENCE_2,RunPeriod: YEAR ROUND RUN PERIOD,8.7826740886E-002,0.1025693053,Pass,Pass,8.5328193860E-003,1.0150221913E-002,Pass,Pass
 Warmup Convergence Information,MECHANICAL_2,RunPeriod: YEAR ROUND RUN PERIOD,8.1393528165E-002,9.0978734615E-002,Pass,Pass,7.6720958135E-003,8.6715915607E-003,Pass,Pass
 Warmup Convergence Information,OFFICE_OPEN_2,RunPeriod: YEAR ROUND RUN PERIOD,6.0513030168E-002,6.7157865691E-002,Pass,Pass,6.8935263426E-003,7.7390239386E-003,Pass,Pass
 Warmup Convergence Information,OFFICE_PRIVATE_2,RunPeriod: YEAR ROUND RUN PERIOD,0.1225126813,0.1397735874,Pass,Pass,1.1090294656E-002,1.2927618357E-002,Pass,Pass
 Warmup Convergence Information,STORAGE_2,RunPeriod: YEAR ROUND RUN PERIOD,0.1198841417,0.1383725309,Pass,Pass,1.0190966440E-002,1.2001251363E-002,Pass,Pass
 Warmup Convergence Information,LOBBY_3,RunPeriod: YEAR ROUND RUN PERIOD,5.7754973090E-002,6.5464283939E-002,Pass,Pass,6.2496237809E-003,7.1772614860E-003,Pass,Pass
 Warmup Convergence Information,CONFERENCE_3,RunPeriod: YEAR ROUND RUN PERIOD,7.8869861702E-002,9.1938838299E-002,Pass,Pass,7.9941095930E-003,9.4726792464E-003,Pass,Pass
 Warmup Convergence Information,BREAK_ROOM_3,RunPeriod: YEAR ROUND RUN PERIOD,0.1254690911,0.1404379841,Pass,Pass,1.1856925851E-002,1.3543374906E-002,Pass,Pass
 Warmup Convergence Information,OFFICE_OPEN_3,RunPeriod: YEAR ROUND RUN PERIOD,7.6433079951E-002,8.8401876372E-002,Pass,Pass,7.9172969611E-003,9.2928327644E-003,Pass,Pass
 Warmup Convergence Information,OFFICE_PRIVATE_3,RunPeriod: YEAR ROUND RUN PERIOD,0.1437327896,0.1614082672,Pass,Pass,1.2465503635E-002,1.4328977684E-002,Pass,Pass
 Warmup Convergence Information,LOBBY_4,RunPeriod: YEAR ROUND RUN PERIOD,7.2507093255E-002,8.0716799190E-002,Pass,Pass,7.4360496874E-003,8.3680238405E-003,Pass,Pass
 Warmup Convergence Information,BREAK_ROOM_4,RunPeriod: YEAR ROUND RUN PERIOD,9.5660129440E-002,0.1078145099,Pass,Pass,9.8452654678E-003,1.1272594665E-002,Pass,Pass
 Warmup Convergence Information,MECHANICAL_4,RunPeriod: YEAR ROUND RUN PERIOD,8.7508508863E-002,0.1034197725,Pass,Pass,7.8916525712E-003,9.4655393912E-003,Pass,Pass
 Warmup Convergence Information,OFFICE_OPEN_4,RunPeriod: YEAR ROUND RUN PERIOD,6.0763800645E-002,6.7077449788E-002,Pass,Pass,6.8862972741E-003,7.6816845805E-003,Pass,Pass
 Warmup Convergence Information,OFFICE_PRIVATE_4,RunPeriod: YEAR ROUND RUN PERIOD,0.1637066005,0.1772961462,Pass,Pass,1.4022580866E-002,1.5565781860E-002,Pass,Pass
 Warmup Convergence Information,STORAGE_4,RunPeriod: YEAR ROUND RUN PERIOD,0.1547201279,0.1764070838,Pass,Pass,1.2352297857E-002,1.4409542026E-002,Pass,Pass
! <Program Control Information:Threads/Parallel Sims>, Threading Supported,Maximum Number of Threads, Env Set Threads (OMP_NUM_THREADS), EP Env Set Threads (EP_OMP_NUM_THREADS), IDF Set Threads, Number of Threads Used (Interior Radiant Exchange), Number Nominal Surfaces, Number Parallel Sims
Program Control:Threads/Parallel Sims, No,1, N/A, N/A, N/A, N/A, N/A, N/A
End of Data
