Program Version,EnergyPlus, Version 24.2.0-94a887817b, YMD=2025.11.03 15:43,
Var Type (reported time step),Var Report Type,Variable Name [Units]
Zone,Meter,Electricity:Facility [J]
Zone,Meter,Electricity:Building [J]
Zone,Meter,Electricity:Zone:LOBBY_0 [J]
Zone,Meter,Electricity:SpaceType:GENERAL [J]
Zone,Meter,InteriorLights:Electricity [J]
Zone,Meter,InteriorLights:Electricity:Zone:LOBBY_0 [J]
Zone,Meter,InteriorLights:Electricity:SpaceType:GENERAL [J]
Zone,Meter,General:InteriorLights:Electricity [J]
Zone,Meter,General:InteriorLights:Electricity:Zone:LOBBY_0 [J]
Zone,Meter,General:InteriorLights:Electricity:SpaceType:GENERAL [J]
Zone,Meter,Electricity:Zone:CONFERENCE_0 [J]
Zone,Meter,InteriorLights:Electricity:Zone:CONFERENCE_0 [J]
Zone,Meter,General:InteriorLights:Electricity:Zone:CONFERENCE_0 [J]
Zone,Meter,Electricity:Zone:BREAK_ROOM_0 [J]
Zone,Meter,InteriorLights:Electricity:Zone:BREAK_ROOM_0 [J]
Zone,Meter,General:InteriorLights:Electricity:Zone:BREAK_ROOM_0 [J]
Zone,Meter,Electricity:Zone:MECHANICAL_0 [J]
Zone,Meter,InteriorLights:Electricity:Zone:MECHANICAL_0 [J]
Zone,Meter,General:InteriorLights:Electricity:Zone:MECHANICAL_0 [J]
Zone,Meter,Electricity:Zone:OFFICE_OPEN_0 [J]
Zone,Meter,InteriorLights:Electricity:Zone:OFFICE_OPEN_0 [J]
Zone,Meter,General:InteriorLights:Electricity:Zone:OFFICE_OPEN_0 [J]
Zone,Meter,Electricity:Zone:OFFICE_PRIVATE_0 [J]
Zone,Meter,InteriorLights:Electricity:Zone:OFFICE_PRIVATE_0 [J]
Zone,Meter,General:InteriorLights:Electricity:Zone:OFFICE_PRIVATE_0 [J]
Zone,Meter,Electricity:Zone:STORAGE_0 [J]
Zone,Meter,InteriorLights:Electricity:Zone:STORAGE_0 [J]
Zone,Meter,General:InteriorLights:Electricity:Zone:STORAGE_0 [J]
Zone,Meter,Electricity:Zone:OFFICE_OPEN_0_2 [J]
Zone,Meter,InteriorLights:Electricity:Zone:OFFICE_OPEN_0_2 [J]
Zone,Meter,General:InteriorLights:Electricity:Zone:OFFICE_OPEN_0_2 [J]
Zone,Meter,Electricity:Zone:OFFICE_OPEN_0_3 [J]
Zone,Meter,InteriorLights:Electricity:Zone:OFFICE_OPEN_0_3 [J]
Zone,Meter,General:InteriorLights:Electricity:Zone:OFFICE_OPEN_0_3 [J]
Zone,Meter,Electricity:Zone:OFFICE_OPEN_0_4 [J]
Zone,Meter,InteriorLights:Electricity:Zone:OFFICE_OPEN_0_4 [J]
Zone,Meter,General:InteriorLights:Electricity:Zone:OFFICE_OPEN_0_4 [J]
Zone,Meter,Electricity:Zone:OFFICE_OPEN_0_5 [J]
Zone,Meter,InteriorLights:Electricity:Zone:OFFICE_OPEN_0_5 [J]
Zone,Meter,General:InteriorLights:Electricity:Zone:OFFICE_OPEN_0_5 [J]
Zone,Meter,Electricity:Zone:LOBBY_1 [J]
Zone,Meter,InteriorLights:Electricity:Zone:LOBBY_1 [J]
Zone,Meter,General:InteriorLights:Electricity:Zone:LOBBY_1 [J]
Zone,Meter,Electricity:Zone:CONFERENCE_1 [J]
Zone,Meter,InteriorLights:Electricity:Zone:CONFERENCE_1 [J]
Zone,Meter,General:InteriorLights:Electricity:Zone:CONFERENCE_1 [J]
Zone,Meter,Electricity:Zone:BREAK_ROOM_1 [J]
Zone,Meter,InteriorLights:Electricity:Zone:BREAK_ROOM_1 [J]
Zone,Meter,General:InteriorLights:Electricity:Zone:BREAK_ROOM_1 [J]
Zone,Meter,Electricity:Zone:MECHANICAL_1 [J]
Zone,Meter,InteriorLights:Electricity:Zone:MECHANICAL_1 [J]
Zone,Meter,General:InteriorLights:Electricity:Zone:MECHANICAL_1 [J]
Zone,Meter,Electricity:Zone:OFFICE_OPEN_1 [J]
Zone,Meter,InteriorLights:Electricity:Zone:OFFICE_OPEN_1 [J]
Zone,Meter,General:InteriorLights:Electricity:Zone:OFFICE_OPEN_1 [J]
Zone,Meter,Electricity:Zone:OFFICE_PRIVATE_1 [J]
Zone,Meter,InteriorLights:Electricity:Zone:OFFICE_PRIVATE_1 [J]
Zone,Meter,General:InteriorLights:Electricity:Zone:OFFICE_PRIVATE_1 [J]
Zone,Meter,Electricity:Zone:STORAGE_1 [J]
Zone,Meter,InteriorLights:Electricity:Zone:STORAGE_1 [J]
Zone,Meter,General:InteriorLights:Electricity:Zone:STORAGE_1 [J]
Zone,Meter,Electricity:Zone:OFFICE_OPEN_1_2 [J]
Zone,Meter,InteriorLights:Electricity:Zone:OFFICE_OPEN_1_2 [J]
Zone,Meter,General:InteriorLights:Electricity:Zone:OFFICE_OPEN_1_2 [J]
Zone,Meter,Electricity:Zone:OFFICE_OPEN_1_3 [J]
Zone,Meter,InteriorLights:Electricity:Zone:OFFICE_OPEN_1_3 [J]
Zone,Meter,General:InteriorLights:Electricity:Zone:OFFICE_OPEN_1_3 [J]
Zone,Meter,Electricity:Zone:OFFICE_OPEN_1_4 [J]
Zone,Meter,InteriorLights:Electricity:Zone:OFFICE_OPEN_1_4 [J]
Zone,Meter,General:InteriorLights:Electricity:Zone:OFFICE_OPEN_1_4 [J]
Zone,Meter,Electricity:Zone:OFFICE_OPEN_1_5 [J]
Zone,Meter,InteriorLights:Electricity:Zone:OFFICE_OPEN_1_5 [J]
Zone,Meter,General:InteriorLights:Electricity:Zone:OFFICE_OPEN_1_5 [J]
Zone,Meter,Electricity:Zone:OFFICE_OPEN_1_6 [J]
Zone,Meter,InteriorLights:Electricity:Zone:OFFICE_OPEN_1_6 [J]
Zone,Meter,General:InteriorLights:Electricity:Zone:OFFICE_OPEN_1_6 [J]
Zone,Meter,Electricity:Zone:LOBBY_2 [J]
Zone,Meter,InteriorLights:Electricity:Zone:LOBBY_2 [J]
Zone,Meter,General:InteriorLights:Electricity:Zone:LOBBY_2 [J]
Zone,Meter,Electricity:Zone:CONFERENCE_2 [J]
Zone,Meter,InteriorLights:Electricity:Zone:CONFERENCE_2 [J]
Zone,Meter,General:InteriorLights:Electricity:Zone:CONFERENCE_2 [J]
Zone,Meter,Electricity:Zone:BREAK_ROOM_2 [J]
Zone,Meter,InteriorLights:Electricity:Zone:BREAK_ROOM_2 [J]
Zone,Meter,General:InteriorLights:Electricity:Zone:BREAK_ROOM_2 [J]
Zone,Meter,Electricity:Zone:MECHANICAL_2 [J]
Zone,Meter,InteriorLights:Electricity:Zone:MECHANICAL_2 [J]
Zone,Meter,General:InteriorLights:Electricity:Zone:MECHANICAL_2 [J]
Zone,Meter,Electricity:Zone:OFFICE_OPEN_2 [J]
Zone,Meter,InteriorLights:Electricity:Zone:OFFICE_OPEN_2 [J]
Zone,Meter,General:InteriorLights:Electricity:Zone:OFFICE_OPEN_2 [J]
Zone,Meter,Electricity:Zone:OFFICE_PRIVATE_2 [J]
Zone,Meter,InteriorLights:Electricity:Zone:OFFICE_PRIVATE_2 [J]
Zone,Meter,General:InteriorLights:Electricity:Zone:OFFICE_PRIVATE_2 [J]
Zone,Meter,Electricity:Zone:STORAGE_2 [J]
Zone,Meter,InteriorLights:Electricity:Zone:STORAGE_2 [J]
Zone,Meter,General:InteriorLights:Electricity:Zone:STORAGE_2 [J]
Zone,Meter,Electricity:Zone:OFFICE_OPEN_2_2 [J]
Zone,Meter,InteriorLights:Electricity:Zone:OFFICE_OPEN_2_2 [J]
Zone,Meter,General:InteriorLights:Electricity:Zone:OFFICE_OPEN_2_2 [J]
Zone,Meter,Electricity:Zone:OFFICE_OPEN_2_3 [J]
Zone,Meter,InteriorLights:Electricity:Zone:OFFICE_OPEN_2_3 [J]
Zone,Meter,General:InteriorLights:Electricity:Zone:OFFICE_OPEN_2_3 [J]
Zone,Meter,Electricity:Zone:OFFICE_OPEN_2_4 [J]
Zone,Meter,InteriorLights:Electricity:Zone:OFFICE_OPEN_2_4 [J]
Zone,Meter,General:InteriorLights:Electricity:Zone:OFFICE_OPEN_2_4 [J]
Zone,Meter,Electricity:Zone:LOBBY_3 [J]
Zone,Meter,InteriorLights:Electricity:Zone:LOBBY_3 [J]
Zone,Meter,General:InteriorLights:Electricity:Zone:LOBBY_3 [J]
Zone,Meter,Electricity:Zone:CONFERENCE_3 [J]
Zone,Meter,InteriorLights:Electricity:Zone:CONFERENCE_3 [J]
Zone,Meter,General:InteriorLights:Electricity:Zone:CONFERENCE_3 [J]
Zone,Meter,Electricity:Zone:BREAK_ROOM_3 [J]
Zone,Meter,InteriorLights:Electricity:Zone:BREAK_ROOM_3 [J]
Zone,Meter,General:InteriorLights:Electricity:Zone:BREAK_ROOM_3 [J]
Zone,Meter,Electricity:Zone:MECHANICAL_3 [J]
Zone,Meter,InteriorLights:Electricity:Zone:MECHANICAL_3 [J]
Zone,Meter,General:InteriorLights:Electricity:Zone:MECHANICAL_3 [J]
Zone,Meter,Electricity:Zone:OFFICE_OPEN_3 [J]
Zone,Meter,InteriorLights:Electricity:Zone:OFFICE_OPEN_3 [J]
Zone,Meter,General:InteriorLights:Electricity:Zone:OFFICE_OPEN_3 [J]
Zone,Meter,Electricity:Zone:OFFICE_PRIVATE_3 [J]
Zone,Meter,InteriorLights:Electricity:Zone:OFFICE_PRIVATE_3 [J]
Zone,Meter,General:InteriorLights:Electricity:Zone:OFFICE_PRIVATE_3 [J]
Zone,Meter,Electricity:Zone:STORAGE_3 [J]
Zone,Meter,InteriorLights:Electricity:Zone:STORAGE_3 [J]
Zone,Meter,General:InteriorLights:Electricity:Zone:STORAGE_3 [J]
Zone,Meter,Electricity:Zone:OFFICE_OPEN_3_2 [J]
Zone,Meter,InteriorLights:Electricity:Zone:OFFICE_OPEN_3_2 [J]
Zone,Meter,General:InteriorLights:Electricity:Zone:OFFICE_OPEN_3_2 [J]
Zone,Meter,Electricity:Zone:OFFICE_OPEN_3_3 [J]
Zone,Meter,InteriorLights:Electricity:Zone:OFFICE_OPEN_3_3 [J]
Zone,Meter,General:InteriorLights:Electricity:Zone:OFFICE_OPEN_3_3 [J]
Zone,Meter,Electricity:Zone:OFFICE_OPEN_3_4 [J]
Zone,Meter,InteriorLights:Electricity:Zone:OFFICE_OPEN_3_4 [J]
Zone,Meter,General:InteriorLights:Electricity:Zone:OFFICE_OPEN_3_4 [J]
Zone,Meter,Electricity:Zone:OFFICE_OPEN_3_5 [J]
Zone,Meter,InteriorLights:Electricity:Zone:OFFICE_OPEN_3_5 [J]
Zone,Meter,General:InteriorLights:Electricity:Zone:OFFICE_OPEN_3_5 [J]
Zone,Meter,Electricity:Zone:OFFICE_OPEN_3_6 [J]
Zone,Meter,InteriorLights:Electricity:Zone:OFFICE_OPEN_3_6 [J]
Zone,Meter,General:InteriorLights:Electricity:Zone:OFFICE_OPEN_3_6 [J]
Zone,Meter,Electricity:Zone:OFFICE_OPEN_3_7 [J]
Zone,Meter,InteriorLights:Electricity:Zone:OFFICE_OPEN_3_7 [J]
Zone,Meter,General:InteriorLights:Electricity:Zone:OFFICE_OPEN_3_7 [J]
Zone,Meter,Electricity:Zone:LOBBY_4 [J]
Zone,Meter,InteriorLights:Electricity:Zone:LOBBY_4 [J]
Zone,Meter,General:InteriorLights:Electricity:Zone:LOBBY_4 [J]
Zone,Meter,Electricity:Zone:CONFERENCE_4 [J]
Zone,Meter,InteriorLights:Electricity:Zone:CONFERENCE_4 [J]
Zone,Meter,General:InteriorLights:Electricity:Zone:CONFERENCE_4 [J]
Zone,Meter,Electricity:Zone:BREAK_ROOM_4 [J]
Zone,Meter,InteriorLights:Electricity:Zone:BREAK_ROOM_4 [J]
Zone,Meter,General:InteriorLights:Electricity:Zone:BREAK_ROOM_4 [J]
Zone,Meter,Electricity:Zone:MECHANICAL_4 [J]
Zone,Meter,InteriorLights:Electricity:Zone:MECHANICAL_4 [J]
Zone,Meter,General:InteriorLights:Electricity:Zone:MECHANICAL_4 [J]
Zone,Meter,Electricity:Zone:OFFICE_OPEN_4 [J]
Zone,Meter,InteriorLights:Electricity:Zone:OFFICE_OPEN_4 [J]
Zone,Meter,General:InteriorLights:Electricity:Zone:OFFICE_OPEN_4 [J]
Zone,Meter,Electricity:Zone:OFFICE_PRIVATE_4 [J]
Zone,Meter,InteriorLights:Electricity:Zone:OFFICE_PRIVATE_4 [J]
Zone,Meter,General:InteriorLights:Electricity:Zone:OFFICE_PRIVATE_4 [J]
Zone,Meter,Electricity:Zone:STORAGE_4 [J]
Zone,Meter,InteriorLights:Electricity:Zone:STORAGE_4 [J]
Zone,Meter,General:InteriorLights:Electricity:Zone:STORAGE_4 [J]
Zone,Meter,Electricity:Zone:OFFICE_OPEN_4_2 [J]
Zone,Meter,InteriorLights:Electricity:Zone:OFFICE_OPEN_4_2 [J]
Zone,Meter,General:InteriorLights:Electricity:Zone:OFFICE_OPEN_4_2 [J]
Zone,Meter,Electricity:Zone:OFFICE_OPEN_4_3 [J]
Zone,Meter,InteriorLights:Electricity:Zone:OFFICE_OPEN_4_3 [J]
Zone,Meter,General:InteriorLights:Electricity:Zone:OFFICE_OPEN_4_3 [J]
Zone,Meter,Electricity:Zone:OFFICE_OPEN_4_4 [J]
Zone,Meter,InteriorLights:Electricity:Zone:OFFICE_OPEN_4_4 [J]
Zone,Meter,General:InteriorLights:Electricity:Zone:OFFICE_OPEN_4_4 [J]
Zone,Meter,Electricity:Zone:OFFICE_OPEN_4_5 [J]
Zone,Meter,InteriorLights:Electricity:Zone:OFFICE_OPEN_4_5 [J]
Zone,Meter,General:InteriorLights:Electricity:Zone:OFFICE_OPEN_4_5 [J]
Zone,Meter,Electricity:Zone:OFFICE_OPEN_4_6 [J]
Zone,Meter,InteriorLights:Electricity:Zone:OFFICE_OPEN_4_6 [J]
Zone,Meter,General:InteriorLights:Electricity:Zone:OFFICE_OPEN_4_6 [J]
Zone,Meter,Electricity:Zone:OFFICE_OPEN_4_7 [J]
Zone,Meter,InteriorLights:Electricity:Zone:OFFICE_OPEN_4_7 [J]
Zone,Meter,General:InteriorLights:Electricity:Zone:OFFICE_OPEN_4_7 [J]
Zone,Meter,Electricity:Zone:LOBBY_5 [J]
Zone,Meter,InteriorLights:Electricity:Zone:LOBBY_5 [J]
Zone,Meter,General:InteriorLights:Electricity:Zone:LOBBY_5 [J]
Zone,Meter,Electricity:Zone:CONFERENCE_5 [J]
Zone,Meter,InteriorLights:Electricity:Zone:CONFERENCE_5 [J]
Zone,Meter,General:InteriorLights:Electricity:Zone:CONFERENCE_5 [J]
Zone,Meter,Electricity:Zone:BREAK_ROOM_5 [J]
Zone,Meter,InteriorLights:Electricity:Zone:BREAK_ROOM_5 [J]
Zone,Meter,General:InteriorLights:Electricity:Zone:BREAK_ROOM_5 [J]
Zone,Meter,Electricity:Zone:MECHANICAL_5 [J]
Zone,Meter,InteriorLights:Electricity:Zone:MECHANICAL_5 [J]
Zone,Meter,General:InteriorLights:Electricity:Zone:MECHANICAL_5 [J]
Zone,Meter,Electricity:Zone:OFFICE_OPEN_5 [J]
Zone,Meter,InteriorLights:Electricity:Zone:OFFICE_OPEN_5 [J]
Zone,Meter,General:InteriorLights:Electricity:Zone:OFFICE_OPEN_5 [J]
Zone,Meter,Electricity:Zone:OFFICE_PRIVATE_5 [J]
Zone,Meter,InteriorLights:Electricity:Zone:OFFICE_PRIVATE_5 [J]
Zone,Meter,General:InteriorLights:Electricity:Zone:OFFICE_PRIVATE_5 [J]
Zone,Meter,Electricity:Zone:STORAGE_5 [J]
Zone,Meter,InteriorLights:Electricity:Zone:STORAGE_5 [J]
Zone,Meter,General:InteriorLights:Electricity:Zone:STORAGE_5 [J]
Zone,Meter,Electricity:Zone:OFFICE_OPEN_5_2 [J]
Zone,Meter,InteriorLights:Electricity:Zone:OFFICE_OPEN_5_2 [J]
Zone,Meter,General:InteriorLights:Electricity:Zone:OFFICE_OPEN_5_2 [J]
Zone,Meter,Electricity:Zone:OFFICE_OPEN_5_3 [J]
Zone,Meter,InteriorLights:Electricity:Zone:OFFICE_OPEN_5_3 [J]
Zone,Meter,General:InteriorLights:Electricity:Zone:OFFICE_OPEN_5_3 [J]
Zone,Meter,Electricity:Zone:OFFICE_OPEN_5_4 [J]
Zone,Meter,InteriorLights:Electricity:Zone:OFFICE_OPEN_5_4 [J]
Zone,Meter,General:InteriorLights:Electricity:Zone:OFFICE_OPEN_5_4 [J]
Zone,Meter,Electricity:Zone:OFFICE_OPEN_5_5 [J]
Zone,Meter,InteriorLights:Electricity:Zone:OFFICE_OPEN_5_5 [J]
Zone,Meter,General:InteriorLights:Electricity:Zone:OFFICE_OPEN_5_5 [J]
Zone,Meter,Electricity:Zone:OFFICE_OPEN_5_6 [J]
Zone,Meter,InteriorLights:Electricity:Zone:OFFICE_OPEN_5_6 [J]
Zone,Meter,General:InteriorLights:Electricity:Zone:OFFICE_OPEN_5_6 [J]
Zone,Meter,Electricity:Zone:OFFICE_OPEN_5_7 [J]
Zone,Meter,InteriorLights:Electricity:Zone:OFFICE_OPEN_5_7 [J]
Zone,Meter,General:InteriorLights:Electricity:Zone:OFFICE_OPEN_5_7 [J]
Zone,Meter,Electricity:Zone:LOBBY_6 [J]
Zone,Meter,InteriorLights:Electricity:Zone:LOBBY_6 [J]
Zone,Meter,General:InteriorLights:Electricity:Zone:LOBBY_6 [J]
Zone,Meter,Electricity:Zone:CONFERENCE_6 [J]
Zone,Meter,InteriorLights:Electricity:Zone:CONFERENCE_6 [J]
Zone,Meter,General:InteriorLights:Electricity:Zone:CONFERENCE_6 [J]
Zone,Meter,Electricity:Zone:BREAK_ROOM_6 [J]
Zone,Meter,InteriorLights:Electricity:Zone:BREAK_ROOM_6 [J]
Zone,Meter,General:InteriorLights:Electricity:Zone:BREAK_ROOM_6 [J]
Zone,Meter,Electricity:Zone:MECHANICAL_6 [J]
Zone,Meter,InteriorLights:Electricity:Zone:MECHANICAL_6 [J]
Zone,Meter,General:InteriorLights:Electricity:Zone:MECHANICAL_6 [J]
Zone,Meter,Electricity:Zone:OFFICE_OPEN_6 [J]
Zone,Meter,InteriorLights:Electricity:Zone:OFFICE_OPEN_6 [J]
Zone,Meter,General:InteriorLights:Electricity:Zone:OFFICE_OPEN_6 [J]
Zone,Meter,Electricity:Zone:OFFICE_PRIVATE_6 [J]
Zone,Meter,InteriorLights:Electricity:Zone:OFFICE_PRIVATE_6 [J]
Zone,Meter,General:InteriorLights:Electricity:Zone:OFFICE_PRIVATE_6 [J]
Zone,Meter,Electricity:Zone:STORAGE_6 [J]
Zone,Meter,InteriorLights:Electricity:Zone:STORAGE_6 [J]
Zone,Meter,General:InteriorLights:Electricity:Zone:STORAGE_6 [J]
Zone,Meter,Electricity:Zone:OFFICE_OPEN_6_2 [J]
Zone,Meter,InteriorLights:Electricity:Zone:OFFICE_OPEN_6_2 [J]
Zone,Meter,General:InteriorLights:Electricity:Zone:OFFICE_OPEN_6_2 [J]
Zone,Meter,Electricity:Zone:OFFICE_OPEN_6_3 [J]
Zone,Meter,InteriorLights:Electricity:Zone:OFFICE_OPEN_6_3 [J]
Zone,Meter,General:InteriorLights:Electricity:Zone:OFFICE_OPEN_6_3 [J]
Zone,Meter,Electricity:Zone:OFFICE_OPEN_6_4 [J]
Zone,Meter,InteriorLights:Electricity:Zone:OFFICE_OPEN_6_4 [J]
Zone,Meter,General:InteriorLights:Electricity:Zone:OFFICE_OPEN_6_4 [J]
Zone,Meter,Electricity:Zone:OFFICE_OPEN_6_5 [J]
Zone,Meter,InteriorLights:Electricity:Zone:OFFICE_OPEN_6_5 [J]
Zone,Meter,General:InteriorLights:Electricity:Zone:OFFICE_OPEN_6_5 [J]
Zone,Meter,Electricity:Zone:OFFICE_OPEN_6_6 [J]
Zone,Meter,InteriorLights:Electricity:Zone:OFFICE_OPEN_6_6 [J]
Zone,Meter,General:InteriorLights:Electricity:Zone:OFFICE_OPEN_6_6 [J]
Zone,Meter,Electricity:Zone:OFFICE_OPEN_6_7 [J]
Zone,Meter,InteriorLights:Electricity:Zone:OFFICE_OPEN_6_7 [J]
Zone,Meter,General:InteriorLights:Electricity:Zone:OFFICE_OPEN_6_7 [J]
Zone,Meter,Electricity:Zone:LOBBY_7 [J]
Zone,Meter,InteriorLights:Electricity:Zone:LOBBY_7 [J]
Zone,Meter,General:InteriorLights:Electricity:Zone:LOBBY_7 [J]
Zone,Meter,Electricity:Zone:CONFERENCE_7 [J]
Zone,Meter,InteriorLights:Electricity:Zone:CONFERENCE_7 [J]
Zone,Meter,General:InteriorLights:Electricity:Zone:CONFERENCE_7 [J]
Zone,Meter,Electricity:Zone:BREAK_ROOM_7 [J]
Zone,Meter,InteriorLights:Electricity:Zone:BREAK_ROOM_7 [J]
Zone,Meter,General:InteriorLights:Electricity:Zone:BREAK_ROOM_7 [J]
Zone,Meter,Electricity:Zone:MECHANICAL_7 [J]
Zone,Meter,InteriorLights:Electricity:Zone:MECHANICAL_7 [J]
Zone,Meter,General:InteriorLights:Electricity:Zone:MECHANICAL_7 [J]
Zone,Meter,Electricity:Zone:OFFICE_OPEN_7 [J]
Zone,Meter,InteriorLights:Electricity:Zone:OFFICE_OPEN_7 [J]
Zone,Meter,General:InteriorLights:Electricity:Zone:OFFICE_OPEN_7 [J]
Zone,Meter,Electricity:Zone:OFFICE_PRIVATE_7 [J]
Zone,Meter,InteriorLights:Electricity:Zone:OFFICE_PRIVATE_7 [J]
Zone,Meter,General:InteriorLights:Electricity:Zone:OFFICE_PRIVATE_7 [J]
Zone,Meter,Electricity:Zone:STORAGE_7 [J]
Zone,Meter,InteriorLights:Electricity:Zone:STORAGE_7 [J]
Zone,Meter,General:InteriorLights:Electricity:Zone:STORAGE_7 [J]
Zone,Meter,Electricity:Zone:OFFICE_OPEN_7_2 [J]
Zone,Meter,InteriorLights:Electricity:Zone:OFFICE_OPEN_7_2 [J]
Zone,Meter,General:InteriorLights:Electricity:Zone:OFFICE_OPEN_7_2 [J]
Zone,Meter,Electricity:Zone:OFFICE_OPEN_7_3 [J]
Zone,Meter,InteriorLights:Electricity:Zone:OFFICE_OPEN_7_3 [J]
Zone,Meter,General:InteriorLights:Electricity:Zone:OFFICE_OPEN_7_3 [J]
Zone,Meter,Electricity:Zone:OFFICE_OPEN_7_4 [J]
Zone,Meter,InteriorLights:Electricity:Zone:OFFICE_OPEN_7_4 [J]
Zone,Meter,General:InteriorLights:Electricity:Zone:OFFICE_OPEN_7_4 [J]
Zone,Meter,Electricity:Zone:OFFICE_OPEN_7_5 [J]
Zone,Meter,InteriorLights:Electricity:Zone:OFFICE_OPEN_7_5 [J]
Zone,Meter,General:InteriorLights:Electricity:Zone:OFFICE_OPEN_7_5 [J]
Zone,Meter,Electricity:Zone:OFFICE_OPEN_7_6 [J]
Zone,Meter,InteriorLights:Electricity:Zone:OFFICE_OPEN_7_6 [J]
Zone,Meter,General:InteriorLights:Electricity:Zone:OFFICE_OPEN_7_6 [J]
Zone,Meter,Electricity:Zone:LOBBY_8 [J]
Zone,Meter,InteriorLights:Electricity:Zone:LOBBY_8 [J]
Zone,Meter,General:InteriorLights:Electricity:Zone:LOBBY_8 [J]
Zone,Meter,Electricity:Zone:CONFERENCE_8 [J]
Zone,Meter,InteriorLights:Electricity:Zone:CONFERENCE_8 [J]
Zone,Meter,General:InteriorLights:Electricity:Zone:CONFERENCE_8 [J]
Zone,Meter,Electricity:Zone:BREAK_ROOM_8 [J]
Zone,Meter,InteriorLights:Electricity:Zone:BREAK_ROOM_8 [J]
Zone,Meter,General:InteriorLights:Electricity:Zone:BREAK_ROOM_8 [J]
Zone,Meter,Electricity:Zone:MECHANICAL_8 [J]
Zone,Meter,InteriorLights:Electricity:Zone:MECHANICAL_8 [J]
Zone,Meter,General:InteriorLights:Electricity:Zone:MECHANICAL_8 [J]
Zone,Meter,Electricity:Zone:OFFICE_OPEN_8 [J]
Zone,Meter,InteriorLights:Electricity:Zone:OFFICE_OPEN_8 [J]
Zone,Meter,General:InteriorLights:Electricity:Zone:OFFICE_OPEN_8 [J]
Zone,Meter,Electricity:Zone:OFFICE_PRIVATE_8 [J]
Zone,Meter,InteriorLights:Electricity:Zone:OFFICE_PRIVATE_8 [J]
Zone,Meter,General:InteriorLights:Electricity:Zone:OFFICE_PRIVATE_8 [J]
Zone,Meter,Electricity:Zone:STORAGE_8 [J]
Zone,Meter,InteriorLights:Electricity:Zone:STORAGE_8 [J]
Zone,Meter,General:InteriorLights:Electricity:Zone:STORAGE_8 [J]
Zone,Meter,Electricity:Zone:OFFICE_OPEN_8_2 [J]
Zone,Meter,InteriorLights:Electricity:Zone:OFFICE_OPEN_8_2 [J]
Zone,Meter,General:InteriorLights:Electricity:Zone:OFFICE_OPEN_8_2 [J]
Zone,Meter,Electricity:Zone:OFFICE_OPEN_8_3 [J]
Zone,Meter,InteriorLights:Electricity:Zone:OFFICE_OPEN_8_3 [J]
Zone,Meter,General:InteriorLights:Electricity:Zone:OFFICE_OPEN_8_3 [J]
Zone,Meter,Electricity:Zone:OFFICE_OPEN_8_4 [J]
Zone,Meter,InteriorLights:Electricity:Zone:OFFICE_OPEN_8_4 [J]
Zone,Meter,General:InteriorLights:Electricity:Zone:OFFICE_OPEN_8_4 [J]
Zone,Meter,Electricity:Zone:LOBBY_9 [J]
Zone,Meter,InteriorLights:Electricity:Zone:LOBBY_9 [J]
Zone,Meter,General:InteriorLights:Electricity:Zone:LOBBY_9 [J]
Zone,Meter,Electricity:Zone:CONFERENCE_9 [J]
Zone,Meter,InteriorLights:Electricity:Zone:CONFERENCE_9 [J]
Zone,Meter,General:InteriorLights:Electricity:Zone:CONFERENCE_9 [J]
Zone,Meter,Electricity:Zone:BREAK_ROOM_9 [J]
Zone,Meter,InteriorLights:Electricity:Zone:BREAK_ROOM_9 [J]
Zone,Meter,General:InteriorLights:Electricity:Zone:BREAK_ROOM_9 [J]
Zone,Meter,Electricity:Zone:MECHANICAL_9 [J]
Zone,Meter,InteriorLights:Electricity:Zone:MECHANICAL_9 [J]
Zone,Meter,General:InteriorLights:Electricity:Zone:MECHANICAL_9 [J]
Zone,Meter,Electricity:Zone:OFFICE_OPEN_9 [J]
Zone,Meter,InteriorLights:Electricity:Zone:OFFICE_OPEN_9 [J]
Zone,Meter,General:InteriorLights:Electricity:Zone:OFFICE_OPEN_9 [J]
Zone,Meter,Electricity:Zone:OFFICE_PRIVATE_9 [J]
Zone,Meter,InteriorLights:Electricity:Zone:OFFICE_PRIVATE_9 [J]
Zone,Meter,General:InteriorLights:Electricity:Zone:OFFICE_PRIVATE_9 [J]
Zone,Meter,Electricity:Zone:STORAGE_9 [J]
Zone,Meter,InteriorLights:Electricity:Zone:STORAGE_9 [J]
Zone,Meter,General:InteriorLights:Electricity:Zone:STORAGE_9 [J]
Zone,Meter,Electricity:Zone:OFFICE_OPEN_9_2 [J]
Zone,Meter,InteriorLights:Electricity:Zone:OFFICE_OPEN_9_2 [J]
Zone,Meter,General:InteriorLights:Electricity:Zone:OFFICE_OPEN_9_2 [J]
Zone,Meter,Electricity:Zone:OFFICE_OPEN_9_3 [J]
Zone,Meter,InteriorLights:Electricity:Zone:OFFICE_OPEN_9_3 [J]
Zone,Meter,General:InteriorLights:Electricity:Zone:OFFICE_OPEN_9_3 [J]
Zone,Meter,Electricity:Zone:OFFICE_OPEN_9_4 [J]
Zone,Meter,InteriorLights:Electricity:Zone:OFFICE_OPEN_9_4 [J]
Zone,Meter,General:InteriorLights:Electricity:Zone:OFFICE_OPEN_9_4 [J]
Zone,Meter,Electricity:Zone:OFFICE_OPEN_9_5 [J]
Zone,Meter,InteriorLights:Electricity:Zone:OFFICE_OPEN_9_5 [J]
Zone,Meter,General:InteriorLights:Electricity:Zone:OFFICE_OPEN_9_5 [J]
Zone,Meter,Electricity:Zone:OFFICE_OPEN_9_6 [J]
Zone,Meter,InteriorLights:Electricity:Zone:OFFICE_OPEN_9_6 [J]
Zone,Meter,General:InteriorLights:Electricity:Zone:OFFICE_OPEN_9_6 [J]
Zone,Meter,Electricity:Zone:LOBBY_10 [J]
Zone,Meter,InteriorLights:Electricity:Zone:LOBBY_10 [J]
Zone,Meter,General:InteriorLights:Electricity:Zone:LOBBY_10 [J]
Zone,Meter,Electricity:Zone:CONFERENCE_10 [J]
Zone,Meter,InteriorLights:Electricity:Zone:CONFERENCE_10 [J]
Zone,Meter,General:InteriorLights:Electricity:Zone:CONFERENCE_10 [J]
Zone,Meter,Electricity:Zone:BREAK_ROOM_10 [J]
Zone,Meter,InteriorLights:Electricity:Zone:BREAK_ROOM_10 [J]
Zone,Meter,General:InteriorLights:Electricity:Zone:BREAK_ROOM_10 [J]
Zone,Meter,Electricity:Zone:MECHANICAL_10 [J]
Zone,Meter,InteriorLights:Electricity:Zone:MECHANICAL_10 [J]
Zone,Meter,General:InteriorLights:Electricity:Zone:MECHANICAL_10 [J]
Zone,Meter,Electricity:Zone:OFFICE_OPEN_10 [J]
Zone,Meter,InteriorLights:Electricity:Zone:OFFICE_OPEN_10 [J]
Zone,Meter,General:InteriorLights:Electricity:Zone:OFFICE_OPEN_10 [J]
Zone,Meter,Electricity:Zone:OFFICE_PRIVATE_10 [J]
Zone,Meter,InteriorLights:Electricity:Zone:OFFICE_PRIVATE_10 [J]
Zone,Meter,General:InteriorLights:Electricity:Zone:OFFICE_PRIVATE_10 [J]
Zone,Meter,Electricity:Zone:STORAGE_10 [J]
Zone,Meter,InteriorLights:Electricity:Zone:STORAGE_10 [J]
Zone,Meter,General:InteriorLights:Electricity:Zone:STORAGE_10 [J]
Zone,Meter,Electricity:Zone:OFFICE_OPEN_10_2 [J]
Zone,Meter,InteriorLights:Electricity:Zone:OFFICE_OPEN_10_2 [J]
Zone,Meter,General:InteriorLights:Electricity:Zone:OFFICE_OPEN_10_2 [J]
Zone,Meter,Electricity:Zone:OFFICE_OPEN_10_3 [J]
Zone,Meter,InteriorLights:Electricity:Zone:OFFICE_OPEN_10_3 [J]
Zone,Meter,General:InteriorLights:Electricity:Zone:OFFICE_OPEN_10_3 [J]
Zone,Meter,Electricity:Zone:OFFICE_OPEN_10_4 [J]
Zone,Meter,InteriorLights:Electricity:Zone:OFFICE_OPEN_10_4 [J]
Zone,Meter,General:InteriorLights:Electricity:Zone:OFFICE_OPEN_10_4 [J]
Zone,Meter,Electricity:Zone:OFFICE_OPEN_10_5 [J]
Zone,Meter,InteriorLights:Electricity:Zone:OFFICE_OPEN_10_5 [J]
Zone,Meter,General:InteriorLights:Electricity:Zone:OFFICE_OPEN_10_5 [J]
Zone,Meter,Electricity:Zone:OFFICE_OPEN_10_6 [J]
Zone,Meter,InteriorLights:Electricity:Zone:OFFICE_OPEN_10_6 [J]
Zone,Meter,General:InteriorLights:Electricity:Zone:OFFICE_OPEN_10_6 [J]
Zone,Meter,Electricity:Zone:OFFICE_OPEN_10_7 [J]
Zone,Meter,InteriorLights:Electricity:Zone:OFFICE_OPEN_10_7 [J]
Zone,Meter,General:InteriorLights:Electricity:Zone:OFFICE_OPEN_10_7 [J]
Zone,Meter,Electricity:Zone:LOBBY_11 [J]
Zone,Meter,InteriorLights:Electricity:Zone:LOBBY_11 [J]
Zone,Meter,General:InteriorLights:Electricity:Zone:LOBBY_11 [J]
Zone,Meter,Electricity:Zone:CONFERENCE_11 [J]
Zone,Meter,InteriorLights:Electricity:Zone:CONFERENCE_11 [J]
Zone,Meter,General:InteriorLights:Electricity:Zone:CONFERENCE_11 [J]
Zone,Meter,Electricity:Zone:BREAK_ROOM_11 [J]
Zone,Meter,InteriorLights:Electricity:Zone:BREAK_ROOM_11 [J]
Zone,Meter,General:InteriorLights:Electricity:Zone:BREAK_ROOM_11 [J]
Zone,Meter,Electricity:Zone:MECHANICAL_11 [J]
Zone,Meter,InteriorLights:Electricity:Zone:MECHANICAL_11 [J]
Zone,Meter,General:InteriorLights:Electricity:Zone:MECHANICAL_11 [J]
Zone,Meter,Electricity:Zone:OFFICE_OPEN_11 [J]
Zone,Meter,InteriorLights:Electricity:Zone:OFFICE_OPEN_11 [J]
Zone,Meter,General:InteriorLights:Electricity:Zone:OFFICE_OPEN_11 [J]
Zone,Meter,Electricity:Zone:OFFICE_PRIVATE_11 [J]
Zone,Meter,InteriorLights:Electricity:Zone:OFFICE_PRIVATE_11 [J]
Zone,Meter,General:InteriorLights:Electricity:Zone:OFFICE_PRIVATE_11 [J]
Zone,Meter,Electricity:Zone:STORAGE_11 [J]
Zone,Meter,InteriorLights:Electricity:Zone:STORAGE_11 [J]
Zone,Meter,General:InteriorLights:Electricity:Zone:STORAGE_11 [J]
Zone,Meter,Electricity:Zone:OFFICE_OPEN_11_2 [J]
Zone,Meter,InteriorLights:Electricity:Zone:OFFICE_OPEN_11_2 [J]
Zone,Meter,General:InteriorLights:Electricity:Zone:OFFICE_OPEN_11_2 [J]
Zone,Meter,Electricity:Zone:OFFICE_OPEN_11_3 [J]
Zone,Meter,InteriorLights:Electricity:Zone:OFFICE_OPEN_11_3 [J]
Zone,Meter,General:InteriorLights:Electricity:Zone:OFFICE_OPEN_11_3 [J]
Zone,Meter,Electricity:Zone:OFFICE_OPEN_11_4 [J]
Zone,Meter,InteriorLights:Electricity:Zone:OFFICE_OPEN_11_4 [J]
Zone,Meter,General:InteriorLights:Electricity:Zone:OFFICE_OPEN_11_4 [J]
Zone,Meter,Electricity:Zone:OFFICE_OPEN_11_5 [J]
Zone,Meter,InteriorLights:Electricity:Zone:OFFICE_OPEN_11_5 [J]
Zone,Meter,General:InteriorLights:Electricity:Zone:OFFICE_OPEN_11_5 [J]
Zone,Meter,Electricity:Zone:OFFICE_OPEN_11_6 [J]
Zone,Meter,InteriorLights:Electricity:Zone:OFFICE_OPEN_11_6 [J]
Zone,Meter,General:InteriorLights:Electricity:Zone:OFFICE_OPEN_11_6 [J]
Zone,Meter,Electricity:Zone:LOBBY_12 [J]
Zone,Meter,InteriorLights:Electricity:Zone:LOBBY_12 [J]
Zone,Meter,General:InteriorLights:Electricity:Zone:LOBBY_12 [J]
Zone,Meter,Electricity:Zone:CONFERENCE_12 [J]
Zone,Meter,InteriorLights:Electricity:Zone:CONFERENCE_12 [J]
Zone,Meter,General:InteriorLights:Electricity:Zone:CONFERENCE_12 [J]
Zone,Meter,Electricity:Zone:BREAK_ROOM_12 [J]
Zone,Meter,InteriorLights:Electricity:Zone:BREAK_ROOM_12 [J]
Zone,Meter,General:InteriorLights:Electricity:Zone:BREAK_ROOM_12 [J]
Zone,Meter,Electricity:Zone:MECHANICAL_12 [J]
Zone,Meter,InteriorLights:Electricity:Zone:MECHANICAL_12 [J]
Zone,Meter,General:InteriorLights:Electricity:Zone:MECHANICAL_12 [J]
Zone,Meter,Electricity:Zone:OFFICE_OPEN_12 [J]
Zone,Meter,InteriorLights:Electricity:Zone:OFFICE_OPEN_12 [J]
Zone,Meter,General:InteriorLights:Electricity:Zone:OFFICE_OPEN_12 [J]
Zone,Meter,Electricity:Zone:OFFICE_PRIVATE_12 [J]
Zone,Meter,InteriorLights:Electricity:Zone:OFFICE_PRIVATE_12 [J]
Zone,Meter,General:InteriorLights:Electricity:Zone:OFFICE_PRIVATE_12 [J]
Zone,Meter,Electricity:Zone:STORAGE_12 [J]
Zone,Meter,InteriorLights:Electricity:Zone:STORAGE_12 [J]
Zone,Meter,General:InteriorLights:Electricity:Zone:STORAGE_12 [J]
Zone,Meter,Electricity:Zone:OFFICE_OPEN_12_2 [J]
Zone,Meter,InteriorLights:Electricity:Zone:OFFICE_OPEN_12_2 [J]
Zone,Meter,General:InteriorLights:Electricity:Zone:OFFICE_OPEN_12_2 [J]
Zone,Meter,Electricity:Zone:OFFICE_OPEN_12_3 [J]
Zone,Meter,InteriorLights:Electricity:Zone:OFFICE_OPEN_12_3 [J]
Zone,Meter,General:InteriorLights:Electricity:Zone:OFFICE_OPEN_12_3 [J]
Zone,Meter,Electricity:Zone:OFFICE_OPEN_12_4 [J]
Zone,Meter,InteriorLights:Electricity:Zone:OFFICE_OPEN_12_4 [J]
Zone,Meter,General:InteriorLights:Electricity:Zone:OFFICE_OPEN_12_4 [J]
Zone,Meter,Electricity:Zone:OFFICE_OPEN_12_5 [J]
Zone,Meter,InteriorLights:Electricity:Zone:OFFICE_OPEN_12_5 [J]
Zone,Meter,General:InteriorLights:Electricity:Zone:OFFICE_OPEN_12_5 [J]
Zone,Meter,Electricity:Zone:OFFICE_OPEN_12_6 [J]
Zone,Meter,InteriorLights:Electricity:Zone:OFFICE_OPEN_12_6 [J]
Zone,Meter,General:InteriorLights:Electricity:Zone:OFFICE_OPEN_12_6 [J]
Zone,Meter,Electricity:Zone:OFFICE_OPEN_12_7 [J]
Zone,Meter,InteriorLights:Electricity:Zone:OFFICE_OPEN_12_7 [J]
Zone,Meter,General:InteriorLights:Electricity:Zone:OFFICE_OPEN_12_7 [J]
Zone,Meter,Electricity:Zone:LOBBY_13 [J]
Zone,Meter,InteriorLights:Electricity:Zone:LOBBY_13 [J]
Zone,Meter,General:InteriorLights:Electricity:Zone:LOBBY_13 [J]
Zone,Meter,Electricity:Zone:CONFERENCE_13 [J]
Zone,Meter,InteriorLights:Electricity:Zone:CONFERENCE_13 [J]
Zone,Meter,General:InteriorLights:Electricity:Zone:CONFERENCE_13 [J]
Zone,Meter,Electricity:Zone:BREAK_ROOM_13 [J]
Zone,Meter,InteriorLights:Electricity:Zone:BREAK_ROOM_13 [J]
Zone,Meter,General:InteriorLights:Electricity:Zone:BREAK_ROOM_13 [J]
Zone,Meter,Electricity:Zone:MECHANICAL_13 [J]
Zone,Meter,InteriorLights:Electricity:Zone:MECHANICAL_13 [J]
Zone,Meter,General:InteriorLights:Electricity:Zone:MECHANICAL_13 [J]
Zone,Meter,Electricity:Zone:OFFICE_OPEN_13 [J]
Zone,Meter,InteriorLights:Electricity:Zone:OFFICE_OPEN_13 [J]
Zone,Meter,General:InteriorLights:Electricity:Zone:OFFICE_OPEN_13 [J]
Zone,Meter,Electricity:Zone:OFFICE_PRIVATE_13 [J]
Zone,Meter,InteriorLights:Electricity:Zone:OFFICE_PRIVATE_13 [J]
Zone,Meter,General:InteriorLights:Electricity:Zone:OFFICE_PRIVATE_13 [J]
Zone,Meter,Electricity:Zone:STORAGE_13 [J]
Zone,Meter,InteriorLights:Electricity:Zone:STORAGE_13 [J]
Zone,Meter,General:InteriorLights:Electricity:Zone:STORAGE_13 [J]
Zone,Meter,Electricity:Zone:OFFICE_OPEN_13_2 [J]
Zone,Meter,InteriorLights:Electricity:Zone:OFFICE_OPEN_13_2 [J]
Zone,Meter,General:InteriorLights:Electricity:Zone:OFFICE_OPEN_13_2 [J]
Zone,Meter,Electricity:Zone:OFFICE_OPEN_13_3 [J]
Zone,Meter,InteriorLights:Electricity:Zone:OFFICE_OPEN_13_3 [J]
Zone,Meter,General:InteriorLights:Electricity:Zone:OFFICE_OPEN_13_3 [J]
Zone,Meter,Electricity:Zone:OFFICE_OPEN_13_4 [J]
Zone,Meter,InteriorLights:Electricity:Zone:OFFICE_OPEN_13_4 [J]
Zone,Meter,General:InteriorLights:Electricity:Zone:OFFICE_OPEN_13_4 [J]
Zone,Meter,Electricity:Zone:OFFICE_OPEN_13_5 [J]
Zone,Meter,InteriorLights:Electricity:Zone:OFFICE_OPEN_13_5 [J]
Zone,Meter,General:InteriorLights:Electricity:Zone:OFFICE_OPEN_13_5 [J]
Zone,Meter,Electricity:Zone:OFFICE_OPEN_13_6 [J]
Zone,Meter,InteriorLights:Electricity:Zone:OFFICE_OPEN_13_6 [J]
Zone,Meter,General:InteriorLights:Electricity:Zone:OFFICE_OPEN_13_6 [J]
Zone,Meter,Electricity:Zone:OFFICE_OPEN_13_7 [J]
Zone,Meter,InteriorLights:Electricity:Zone:OFFICE_OPEN_13_7 [J]
Zone,Meter,General:InteriorLights:Electricity:Zone:OFFICE_OPEN_13_7 [J]
Zone,Meter,Electricity:Zone:LOBBY_14 [J]
Zone,Meter,InteriorLights:Electricity:Zone:LOBBY_14 [J]
Zone,Meter,General:InteriorLights:Electricity:Zone:LOBBY_14 [J]
Zone,Meter,Electricity:Zone:CONFERENCE_14 [J]
Zone,Meter,InteriorLights:Electricity:Zone:CONFERENCE_14 [J]
Zone,Meter,General:InteriorLights:Electricity:Zone:CONFERENCE_14 [J]
Zone,Meter,Electricity:Zone:BREAK_ROOM_14 [J]
Zone,Meter,InteriorLights:Electricity:Zone:BREAK_ROOM_14 [J]
Zone,Meter,General:InteriorLights:Electricity:Zone:BREAK_ROOM_14 [J]
Zone,Meter,Electricity:Zone:MECHANICAL_14 [J]
Zone,Meter,InteriorLights:Electricity:Zone:MECHANICAL_14 [J]
Zone,Meter,General:InteriorLights:Electricity:Zone:MECHANICAL_14 [J]
Zone,Meter,Electricity:Zone:OFFICE_OPEN_14 [J]
Zone,Meter,InteriorLights:Electricity:Zone:OFFICE_OPEN_14 [J]
Zone,Meter,General:InteriorLights:Electricity:Zone:OFFICE_OPEN_14 [J]
Zone,Meter,Electricity:Zone:OFFICE_PRIVATE_14 [J]
Zone,Meter,InteriorLights:Electricity:Zone:OFFICE_PRIVATE_14 [J]
Zone,Meter,General:InteriorLights:Electricity:Zone:OFFICE_PRIVATE_14 [J]
Zone,Meter,Electricity:Zone:STORAGE_14 [J]
Zone,Meter,InteriorLights:Electricity:Zone:STORAGE_14 [J]
Zone,Meter,General:InteriorLights:Electricity:Zone:STORAGE_14 [J]
Zone,Meter,Electricity:Zone:OFFICE_OPEN_14_2 [J]
Zone,Meter,InteriorLights:Electricity:Zone:OFFICE_OPEN_14_2 [J]
Zone,Meter,General:InteriorLights:Electricity:Zone:OFFICE_OPEN_14_2 [J]
Zone,Meter,Electricity:Zone:OFFICE_OPEN_14_3 [J]
Zone,Meter,InteriorLights:Electricity:Zone:OFFICE_OPEN_14_3 [J]
Zone,Meter,General:InteriorLights:Electricity:Zone:OFFICE_OPEN_14_3 [J]
Zone,Meter,Electricity:Zone:OFFICE_OPEN_14_4 [J]
Zone,Meter,InteriorLights:Electricity:Zone:OFFICE_OPEN_14_4 [J]
Zone,Meter,General:InteriorLights:Electricity:Zone:OFFICE_OPEN_14_4 [J]
Zone,Meter,Electricity:Zone:OFFICE_OPEN_14_5 [J]
Zone,Meter,InteriorLights:Electricity:Zone:OFFICE_OPEN_14_5 [J]
Zone,Meter,General:InteriorLights:Electricity:Zone:OFFICE_OPEN_14_5 [J]
Zone,Meter,Electricity:Zone:OFFICE_OPEN_14_6 [J]
Zone,Meter,InteriorLights:Electricity:Zone:OFFICE_OPEN_14_6 [J]
Zone,Meter,General:InteriorLights:Electricity:Zone:OFFICE_OPEN_14_6 [J]
Zone,Meter,Electricity:Zone:OFFICE_OPEN_14_7 [J]
Zone,Meter,InteriorLights:Electricity:Zone:OFFICE_OPEN_14_7 [J]
Zone,Meter,General:InteriorLights:Electricity:Zone:OFFICE_OPEN_14_7 [J]
Zone,Meter,Electricity:Zone:LOBBY_15 [J]
Zone,Meter,InteriorLights:Electricity:Zone:LOBBY_15 [J]
Zone,Meter,General:InteriorLights:Electricity:Zone:LOBBY_15 [J]
Zone,Meter,Electricity:Zone:CONFERENCE_15 [J]
Zone,Meter,InteriorLights:Electricity:Zone:CONFERENCE_15 [J]
Zone,Meter,General:InteriorLights:Electricity:Zone:CONFERENCE_15 [J]
Zone,Meter,Electricity:Zone:BREAK_ROOM_15 [J]
Zone,Meter,InteriorLights:Electricity:Zone:BREAK_ROOM_15 [J]
Zone,Meter,General:InteriorLights:Electricity:Zone:BREAK_ROOM_15 [J]
Zone,Meter,Electricity:Zone:MECHANICAL_15 [J]
Zone,Meter,InteriorLights:Electricity:Zone:MECHANICAL_15 [J]
Zone,Meter,General:InteriorLights:Electricity:Zone:MECHANICAL_15 [J]
Zone,Meter,Electricity:Zone:OFFICE_OPEN_15 [J]
Zone,Meter,InteriorLights:Electricity:Zone:OFFICE_OPEN_15 [J]
Zone,Meter,General:InteriorLights:Electricity:Zone:OFFICE_OPEN_15 [J]
Zone,Meter,Electricity:Zone:OFFICE_PRIVATE_15 [J]
Zone,Meter,InteriorLights:Electricity:Zone:OFFICE_PRIVATE_15 [J]
Zone,Meter,General:InteriorLights:Electricity:Zone:OFFICE_PRIVATE_15 [J]
Zone,Meter,Electricity:Zone:STORAGE_15 [J]
Zone,Meter,InteriorLights:Electricity:Zone:STORAGE_15 [J]
Zone,Meter,General:InteriorLights:Electricity:Zone:STORAGE_15 [J]
Zone,Meter,Electricity:Zone:OFFICE_OPEN_15_2 [J]
Zone,Meter,InteriorLights:Electricity:Zone:OFFICE_OPEN_15_2 [J]
Zone,Meter,General:InteriorLights:Electricity:Zone:OFFICE_OPEN_15_2 [J]
Zone,Meter,Electricity:Zone:OFFICE_OPEN_15_3 [J]
Zone,Meter,InteriorLights:Electricity:Zone:OFFICE_OPEN_15_3 [J]
Zone,Meter,General:InteriorLights:Electricity:Zone:OFFICE_OPEN_15_3 [J]
Zone,Meter,Electricity:Zone:OFFICE_OPEN_15_4 [J]
Zone,Meter,InteriorLights:Electricity:Zone:OFFICE_OPEN_15_4 [J]
Zone,Meter,General:InteriorLights:Electricity:Zone:OFFICE_OPEN_15_4 [J]
Zone,Meter,Electricity:Zone:OFFICE_OPEN_15_5 [J]
Zone,Meter,InteriorLights:Electricity:Zone:OFFICE_OPEN_15_5 [J]
Zone,Meter,General:InteriorLights:Electricity:Zone:OFFICE_OPEN_15_5 [J]
Zone,Meter,Electricity:Zone:LOBBY_16 [J]
Zone,Meter,InteriorLights:Electricity:Zone:LOBBY_16 [J]
Zone,Meter,General:InteriorLights:Electricity:Zone:LOBBY_16 [J]
Zone,Meter,Electricity:Zone:CONFERENCE_16 [J]
Zone,Meter,InteriorLights:Electricity:Zone:CONFERENCE_16 [J]
Zone,Meter,General:InteriorLights:Electricity:Zone:CONFERENCE_16 [J]
Zone,Meter,Electricity:Zone:BREAK_ROOM_16 [J]
Zone,Meter,InteriorLights:Electricity:Zone:BREAK_ROOM_16 [J]
Zone,Meter,General:InteriorLights:Electricity:Zone:BREAK_ROOM_16 [J]
Zone,Meter,Electricity:Zone:MECHANICAL_16 [J]
Zone,Meter,InteriorLights:Electricity:Zone:MECHANICAL_16 [J]
Zone,Meter,General:InteriorLights:Electricity:Zone:MECHANICAL_16 [J]
Zone,Meter,Electricity:Zone:OFFICE_OPEN_16 [J]
Zone,Meter,InteriorLights:Electricity:Zone:OFFICE_OPEN_16 [J]
Zone,Meter,General:InteriorLights:Electricity:Zone:OFFICE_OPEN_16 [J]
Zone,Meter,Electricity:Zone:OFFICE_PRIVATE_16 [J]
Zone,Meter,InteriorLights:Electricity:Zone:OFFICE_PRIVATE_16 [J]
Zone,Meter,General:InteriorLights:Electricity:Zone:OFFICE_PRIVATE_16 [J]
Zone,Meter,Electricity:Zone:STORAGE_16 [J]
Zone,Meter,InteriorLights:Electricity:Zone:STORAGE_16 [J]
Zone,Meter,General:InteriorLights:Electricity:Zone:STORAGE_16 [J]
Zone,Meter,Electricity:Zone:OFFICE_OPEN_16_2 [J]
Zone,Meter,InteriorLights:Electricity:Zone:OFFICE_OPEN_16_2 [J]
Zone,Meter,General:InteriorLights:Electricity:Zone:OFFICE_OPEN_16_2 [J]
Zone,Meter,Electricity:Zone:OFFICE_OPEN_16_3 [J]
Zone,Meter,InteriorLights:Electricity:Zone:OFFICE_OPEN_16_3 [J]
Zone,Meter,General:InteriorLights:Electricity:Zone:OFFICE_OPEN_16_3 [J]
Zone,Meter,Electricity:Zone:OFFICE_OPEN_16_4 [J]
Zone,Meter,InteriorLights:Electricity:Zone:OFFICE_OPEN_16_4 [J]
Zone,Meter,General:InteriorLights:Electricity:Zone:OFFICE_OPEN_16_4 [J]
Zone,Meter,Electricity:Zone:OFFICE_OPEN_16_5 [J]
Zone,Meter,InteriorLights:Electricity:Zone:OFFICE_OPEN_16_5 [J]
Zone,Meter,General:InteriorLights:Electricity:Zone:OFFICE_OPEN_16_5 [J]
Zone,Meter,Electricity:Zone:OFFICE_OPEN_16_6 [J]
Zone,Meter,InteriorLights:Electricity:Zone:OFFICE_OPEN_16_6 [J]
Zone,Meter,General:InteriorLights:Electricity:Zone:OFFICE_OPEN_16_6 [J]
Zone,Meter,Electricity:Zone:OFFICE_OPEN_16_7 [J]
Zone,Meter,InteriorLights:Electricity:Zone:OFFICE_OPEN_16_7 [J]
Zone,Meter,General:InteriorLights:Electricity:Zone:OFFICE_OPEN_16_7 [J]
Zone,Meter,Electricity:Zone:LOBBY_17 [J]
Zone,Meter,InteriorLights:Electricity:Zone:LOBBY_17 [J]
Zone,Meter,General:InteriorLights:Electricity:Zone:LOBBY_17 [J]
Zone,Meter,Electricity:Zone:CONFERENCE_17 [J]
Zone,Meter,InteriorLights:Electricity:Zone:CONFERENCE_17 [J]
Zone,Meter,General:InteriorLights:Electricity:Zone:CONFERENCE_17 [J]
Zone,Meter,Electricity:Zone:BREAK_ROOM_17 [J]
Zone,Meter,InteriorLights:Electricity:Zone:BREAK_ROOM_17 [J]
Zone,Meter,General:InteriorLights:Electricity:Zone:BREAK_ROOM_17 [J]
Zone,Meter,Electricity:Zone:MECHANICAL_17 [J]
Zone,Meter,InteriorLights:Electricity:Zone:MECHANICAL_17 [J]
Zone,Meter,General:InteriorLights:Electricity:Zone:MECHANICAL_17 [J]
Zone,Meter,Electricity:Zone:OFFICE_OPEN_17 [J]
Zone,Meter,InteriorLights:Electricity:Zone:OFFICE_OPEN_17 [J]
Zone,Meter,General:InteriorLights:Electricity:Zone:OFFICE_OPEN_17 [J]
Zone,Meter,Electricity:Zone:OFFICE_PRIVATE_17 [J]
Zone,Meter,InteriorLights:Electricity:Zone:OFFICE_PRIVATE_17 [J]
Zone,Meter,General:InteriorLights:Electricity:Zone:OFFICE_PRIVATE_17 [J]
Zone,Meter,Electricity:Zone:STORAGE_17 [J]
Zone,Meter,InteriorLights:Electricity:Zone:STORAGE_17 [J]
Zone,Meter,General:InteriorLights:Electricity:Zone:STORAGE_17 [J]
Zone,Meter,Electricity:Zone:OFFICE_OPEN_17_2 [J]
Zone,Meter,InteriorLights:Electricity:Zone:OFFICE_OPEN_17_2 [J]
Zone,Meter,General:InteriorLights:Electricity:Zone:OFFICE_OPEN_17_2 [J]
Zone,Meter,Electricity:Zone:OFFICE_OPEN_17_3 [J]
Zone,Meter,InteriorLights:Electricity:Zone:OFFICE_OPEN_17_3 [J]
Zone,Meter,General:InteriorLights:Electricity:Zone:OFFICE_OPEN_17_3 [J]
Zone,Meter,Electricity:Zone:OFFICE_OPEN_17_4 [J]
Zone,Meter,InteriorLights:Electricity:Zone:OFFICE_OPEN_17_4 [J]
Zone,Meter,General:InteriorLights:Electricity:Zone:OFFICE_OPEN_17_4 [J]
Zone,Meter,Electricity:Zone:OFFICE_OPEN_17_5 [J]
Zone,Meter,InteriorLights:Electricity:Zone:OFFICE_OPEN_17_5 [J]
Zone,Meter,General:InteriorLights:Electricity:Zone:OFFICE_OPEN_17_5 [J]
Zone,Meter,Electricity:Zone:OFFICE_OPEN_17_6 [J]
Zone,Meter,InteriorLights:Electricity:Zone:OFFICE_OPEN_17_6 [J]
Zone,Meter,General:InteriorLights:Electricity:Zone:OFFICE_OPEN_17_6 [J]
Zone,Meter,Electricity:Zone:OFFICE_OPEN_17_7 [J]
Zone,Meter,InteriorLights:Electricity:Zone:OFFICE_OPEN_17_7 [J]
Zone,Meter,General:InteriorLights:Electricity:Zone:OFFICE_OPEN_17_7 [J]
Zone,Meter,Electricity:Zone:LOBBY_18 [J]
Zone,Meter,InteriorLights:Electricity:Zone:LOBBY_18 [J]
Zone,Meter,General:InteriorLights:Electricity:Zone:LOBBY_18 [J]
Zone,Meter,Electricity:Zone:CONFERENCE_18 [J]
Zone,Meter,InteriorLights:Electricity:Zone:CONFERENCE_18 [J]
Zone,Meter,General:InteriorLights:Electricity:Zone:CONFERENCE_18 [J]
Zone,Meter,Electricity:Zone:BREAK_ROOM_18 [J]
Zone,Meter,InteriorLights:Electricity:Zone:BREAK_ROOM_18 [J]
Zone,Meter,General:InteriorLights:Electricity:Zone:BREAK_ROOM_18 [J]
Zone,Meter,Electricity:Zone:MECHANICAL_18 [J]
Zone,Meter,InteriorLights:Electricity:Zone:MECHANICAL_18 [J]
Zone,Meter,General:InteriorLights:Electricity:Zone:MECHANICAL_18 [J]
Zone,Meter,Electricity:Zone:OFFICE_OPEN_18 [J]
Zone,Meter,InteriorLights:Electricity:Zone:OFFICE_OPEN_18 [J]
Zone,Meter,General:InteriorLights:Electricity:Zone:OFFICE_OPEN_18 [J]
Zone,Meter,Electricity:Zone:OFFICE_PRIVATE_18 [J]
Zone,Meter,InteriorLights:Electricity:Zone:OFFICE_PRIVATE_18 [J]
Zone,Meter,General:InteriorLights:Electricity:Zone:OFFICE_PRIVATE_18 [J]
Zone,Meter,Electricity:Zone:STORAGE_18 [J]
Zone,Meter,InteriorLights:Electricity:Zone:STORAGE_18 [J]
Zone,Meter,General:InteriorLights:Electricity:Zone:STORAGE_18 [J]
Zone,Meter,Electricity:Zone:OFFICE_OPEN_18_2 [J]
Zone,Meter,InteriorLights:Electricity:Zone:OFFICE_OPEN_18_2 [J]
Zone,Meter,General:InteriorLights:Electricity:Zone:OFFICE_OPEN_18_2 [J]
Zone,Meter,Electricity:Zone:OFFICE_OPEN_18_3 [J]
Zone,Meter,InteriorLights:Electricity:Zone:OFFICE_OPEN_18_3 [J]
Zone,Meter,General:InteriorLights:Electricity:Zone:OFFICE_OPEN_18_3 [J]
Zone,Meter,Electricity:Zone:OFFICE_OPEN_18_4 [J]
Zone,Meter,InteriorLights:Electricity:Zone:OFFICE_OPEN_18_4 [J]
Zone,Meter,General:InteriorLights:Electricity:Zone:OFFICE_OPEN_18_4 [J]
Zone,Meter,Electricity:Zone:OFFICE_OPEN_18_5 [J]
Zone,Meter,InteriorLights:Electricity:Zone:OFFICE_OPEN_18_5 [J]
Zone,Meter,General:InteriorLights:Electricity:Zone:OFFICE_OPEN_18_5 [J]
Zone,Meter,Electricity:Zone:OFFICE_OPEN_18_6 [J]
Zone,Meter,InteriorLights:Electricity:Zone:OFFICE_OPEN_18_6 [J]
Zone,Meter,General:InteriorLights:Electricity:Zone:OFFICE_OPEN_18_6 [J]
Zone,Meter,Electricity:Zone:OFFICE_OPEN_18_7 [J]
Zone,Meter,InteriorLights:Electricity:Zone:OFFICE_OPEN_18_7 [J]
Zone,Meter,General:InteriorLights:Electricity:Zone:OFFICE_OPEN_18_7 [J]
Zone,Meter,Electricity:Zone:LOBBY_19 [J]
Zone,Meter,InteriorLights:Electricity:Zone:LOBBY_19 [J]
Zone,Meter,General:InteriorLights:Electricity:Zone:LOBBY_19 [J]
Zone,Meter,Electricity:Zone:CONFERENCE_19 [J]
Zone,Meter,InteriorLights:Electricity:Zone:CONFERENCE_19 [J]
Zone,Meter,General:InteriorLights:Electricity:Zone:CONFERENCE_19 [J]
Zone,Meter,Electricity:Zone:BREAK_ROOM_19 [J]
Zone,Meter,InteriorLights:Electricity:Zone:BREAK_ROOM_19 [J]
Zone,Meter,General:InteriorLights:Electricity:Zone:BREAK_ROOM_19 [J]
Zone,Meter,Electricity:Zone:MECHANICAL_19 [J]
Zone,Meter,InteriorLights:Electricity:Zone:MECHANICAL_19 [J]
Zone,Meter,General:InteriorLights:Electricity:Zone:MECHANICAL_19 [J]
Zone,Meter,Electricity:Zone:OFFICE_OPEN_19 [J]
Zone,Meter,InteriorLights:Electricity:Zone:OFFICE_OPEN_19 [J]
Zone,Meter,General:InteriorLights:Electricity:Zone:OFFICE_OPEN_19 [J]
Zone,Meter,Electricity:Zone:OFFICE_PRIVATE_19 [J]
Zone,Meter,InteriorLights:Electricity:Zone:OFFICE_PRIVATE_19 [J]
Zone,Meter,General:InteriorLights:Electricity:Zone:OFFICE_PRIVATE_19 [J]
Zone,Meter,Electricity:Zone:STORAGE_19 [J]
Zone,Meter,InteriorLights:Electricity:Zone:STORAGE_19 [J]
Zone,Meter,General:InteriorLights:Electricity:Zone:STORAGE_19 [J]
Zone,Meter,Electricity:Zone:OFFICE_OPEN_19_2 [J]
Zone,Meter,InteriorLights:Electricity:Zone:OFFICE_OPEN_19_2 [J]
Zone,Meter,General:InteriorLights:Electricity:Zone:OFFICE_OPEN_19_2 [J]
Zone,Meter,Electricity:Zone:OFFICE_OPEN_19_3 [J]
Zone,Meter,InteriorLights:Electricity:Zone:OFFICE_OPEN_19_3 [J]
Zone,Meter,General:InteriorLights:Electricity:Zone:OFFICE_OPEN_19_3 [J]
Zone,Meter,Electricity:Zone:OFFICE_OPEN_19_4 [J]
Zone,Meter,InteriorLights:Electricity:Zone:OFFICE_OPEN_19_4 [J]
Zone,Meter,General:InteriorLights:Electricity:Zone:OFFICE_OPEN_19_4 [J]
Zone,Meter,Electricity:Zone:OFFICE_OPEN_19_5 [J]
Zone,Meter,InteriorLights:Electricity:Zone:OFFICE_OPEN_19_5 [J]
Zone,Meter,General:InteriorLights:Electricity:Zone:OFFICE_OPEN_19_5 [J]
Zone,Meter,Electricity:Zone:OFFICE_OPEN_19_6 [J]
Zone,Meter,InteriorLights:Electricity:Zone:OFFICE_OPEN_19_6 [J]
Zone,Meter,General:InteriorLights:Electricity:Zone:OFFICE_OPEN_19_6 [J]
Zone,Meter,Electricity:Zone:OFFICE_OPEN_19_7 [J]
Zone,Meter,InteriorLights:Electricity:Zone:OFFICE_OPEN_19_7 [J]
Zone,Meter,General:InteriorLights:Electricity:Zone:OFFICE_OPEN_19_7 [J]
Zone,Meter,Electricity:Zone:LOBBY_20 [J]
Zone,Meter,InteriorLights:Electricity:Zone:LOBBY_20 [J]
Zone,Meter,General:InteriorLights:Electricity:Zone:LOBBY_20 [J]
Zone,Meter,Electricity:Zone:CONFERENCE_20 [J]
Zone,Meter,InteriorLights:Electricity:Zone:CONFERENCE_20 [J]
Zone,Meter,General:InteriorLights:Electricity:Zone:CONFERENCE_20 [J]
Zone,Meter,Electricity:Zone:BREAK_ROOM_20 [J]
Zone,Meter,InteriorLights:Electricity:Zone:BREAK_ROOM_20 [J]
Zone,Meter,General:InteriorLights:Electricity:Zone:BREAK_ROOM_20 [J]
Zone,Meter,Electricity:Zone:MECHANICAL_20 [J]
Zone,Meter,InteriorLights:Electricity:Zone:MECHANICAL_20 [J]
Zone,Meter,General:InteriorLights:Electricity:Zone:MECHANICAL_20 [J]
Zone,Meter,Electricity:Zone:OFFICE_OPEN_20 [J]
Zone,Meter,InteriorLights:Electricity:Zone:OFFICE_OPEN_20 [J]
Zone,Meter,General:InteriorLights:Electricity:Zone:OFFICE_OPEN_20 [J]
Zone,Meter,Electricity:Zone:OFFICE_PRIVATE_20 [J]
Zone,Meter,InteriorLights:Electricity:Zone:OFFICE_PRIVATE_20 [J]
Zone,Meter,General:InteriorLights:Electricity:Zone:OFFICE_PRIVATE_20 [J]
Zone,Meter,Electricity:Zone:STORAGE_20 [J]
Zone,Meter,InteriorLights:Electricity:Zone:STORAGE_20 [J]
Zone,Meter,General:InteriorLights:Electricity:Zone:STORAGE_20 [J]
Zone,Meter,Electricity:Zone:OFFICE_OPEN_20_2 [J]
Zone,Meter,InteriorLights:Electricity:Zone:OFFICE_OPEN_20_2 [J]
Zone,Meter,General:InteriorLights:Electricity:Zone:OFFICE_OPEN_20_2 [J]
Zone,Meter,Electricity:Zone:OFFICE_OPEN_20_3 [J]
Zone,Meter,InteriorLights:Electricity:Zone:OFFICE_OPEN_20_3 [J]
Zone,Meter,General:InteriorLights:Electricity:Zone:OFFICE_OPEN_20_3 [J]
Zone,Meter,Electricity:Zone:OFFICE_OPEN_20_4 [J]
Zone,Meter,InteriorLights:Electricity:Zone:OFFICE_OPEN_20_4 [J]
Zone,Meter,General:InteriorLights:Electricity:Zone:OFFICE_OPEN_20_4 [J]
Zone,Meter,Electricity:Zone:OFFICE_OPEN_20_5 [J]
Zone,Meter,InteriorLights:Electricity:Zone:OFFICE_OPEN_20_5 [J]
Zone,Meter,General:InteriorLights:Electricity:Zone:OFFICE_OPEN_20_5 [J]
Zone,Meter,Electricity:Zone:OFFICE_OPEN_20_6 [J]
Zone,Meter,InteriorLights:Electricity:Zone:OFFICE_OPEN_20_6 [J]
Zone,Meter,General:InteriorLights:Electricity:Zone:OFFICE_OPEN_20_6 [J]
Zone,Meter,Electricity:Zone:OFFICE_OPEN_20_7 [J]
Zone,Meter,InteriorLights:Electricity:Zone:OFFICE_OPEN_20_7 [J]
Zone,Meter,General:InteriorLights:Electricity:Zone:OFFICE_OPEN_20_7 [J]
Zone,Meter,Electricity:Zone:LOBBY_21 [J]
Zone,Meter,InteriorLights:Electricity:Zone:LOBBY_21 [J]
Zone,Meter,General:InteriorLights:Electricity:Zone:LOBBY_21 [J]
Zone,Meter,Electricity:Zone:CONFERENCE_21 [J]
Zone,Meter,InteriorLights:Electricity:Zone:CONFERENCE_21 [J]
Zone,Meter,General:InteriorLights:Electricity:Zone:CONFERENCE_21 [J]
Zone,Meter,Electricity:Zone:BREAK_ROOM_21 [J]
Zone,Meter,InteriorLights:Electricity:Zone:BREAK_ROOM_21 [J]
Zone,Meter,General:InteriorLights:Electricity:Zone:BREAK_ROOM_21 [J]
Zone,Meter,Electricity:Zone:MECHANICAL_21 [J]
Zone,Meter,InteriorLights:Electricity:Zone:MECHANICAL_21 [J]
Zone,Meter,General:InteriorLights:Electricity:Zone:MECHANICAL_21 [J]
Zone,Meter,Electricity:Zone:OFFICE_OPEN_21 [J]
Zone,Meter,InteriorLights:Electricity:Zone:OFFICE_OPEN_21 [J]
Zone,Meter,General:InteriorLights:Electricity:Zone:OFFICE_OPEN_21 [J]
Zone,Meter,Electricity:Zone:OFFICE_PRIVATE_21 [J]
Zone,Meter,InteriorLights:Electricity:Zone:OFFICE_PRIVATE_21 [J]
Zone,Meter,General:InteriorLights:Electricity:Zone:OFFICE_PRIVATE_21 [J]
Zone,Meter,Electricity:Zone:STORAGE_21 [J]
Zone,Meter,InteriorLights:Electricity:Zone:STORAGE_21 [J]
Zone,Meter,General:InteriorLights:Electricity:Zone:STORAGE_21 [J]
Zone,Meter,Electricity:Zone:OFFICE_OPEN_21_2 [J]
Zone,Meter,InteriorLights:Electricity:Zone:OFFICE_OPEN_21_2 [J]
Zone,Meter,General:InteriorLights:Electricity:Zone:OFFICE_OPEN_21_2 [J]
Zone,Meter,Electricity:Zone:OFFICE_OPEN_21_3 [J]
Zone,Meter,InteriorLights:Electricity:Zone:OFFICE_OPEN_21_3 [J]
Zone,Meter,General:InteriorLights:Electricity:Zone:OFFICE_OPEN_21_3 [J]
Zone,Meter,Electricity:Zone:OFFICE_OPEN_21_4 [J]
Zone,Meter,InteriorLights:Electricity:Zone:OFFICE_OPEN_21_4 [J]
Zone,Meter,General:InteriorLights:Electricity:Zone:OFFICE_OPEN_21_4 [J]
Zone,Meter,Electricity:Zone:OFFICE_OPEN_21_5 [J]
Zone,Meter,InteriorLights:Electricity:Zone:OFFICE_OPEN_21_5 [J]
Zone,Meter,General:InteriorLights:Electricity:Zone:OFFICE_OPEN_21_5 [J]
Zone,Meter,Electricity:Zone:OFFICE_OPEN_21_6 [J]
Zone,Meter,InteriorLights:Electricity:Zone:OFFICE_OPEN_21_6 [J]
Zone,Meter,General:InteriorLights:Electricity:Zone:OFFICE_OPEN_21_6 [J]
Zone,Meter,Electricity:Zone:LOBBY_22 [J]
Zone,Meter,InteriorLights:Electricity:Zone:LOBBY_22 [J]
Zone,Meter,General:InteriorLights:Electricity:Zone:LOBBY_22 [J]
Zone,Meter,Electricity:Zone:CONFERENCE_22 [J]
Zone,Meter,InteriorLights:Electricity:Zone:CONFERENCE_22 [J]
Zone,Meter,General:InteriorLights:Electricity:Zone:CONFERENCE_22 [J]
Zone,Meter,Electricity:Zone:BREAK_ROOM_22 [J]
Zone,Meter,InteriorLights:Electricity:Zone:BREAK_ROOM_22 [J]
Zone,Meter,General:InteriorLights:Electricity:Zone:BREAK_ROOM_22 [J]
Zone,Meter,Electricity:Zone:MECHANICAL_22 [J]
Zone,Meter,InteriorLights:Electricity:Zone:MECHANICAL_22 [J]
Zone,Meter,General:InteriorLights:Electricity:Zone:MECHANICAL_22 [J]
Zone,Meter,Electricity:Zone:OFFICE_OPEN_22 [J]
Zone,Meter,InteriorLights:Electricity:Zone:OFFICE_OPEN_22 [J]
Zone,Meter,General:InteriorLights:Electricity:Zone:OFFICE_OPEN_22 [J]
Zone,Meter,Electricity:Zone:OFFICE_PRIVATE_22 [J]
Zone,Meter,InteriorLights:Electricity:Zone:OFFICE_PRIVATE_22 [J]
Zone,Meter,General:InteriorLights:Electricity:Zone:OFFICE_PRIVATE_22 [J]
Zone,Meter,Electricity:Zone:STORAGE_22 [J]
Zone,Meter,InteriorLights:Electricity:Zone:STORAGE_22 [J]
Zone,Meter,General:InteriorLights:Electricity:Zone:STORAGE_22 [J]
Zone,Meter,Electricity:Zone:OFFICE_OPEN_22_2 [J]
Zone,Meter,InteriorLights:Electricity:Zone:OFFICE_OPEN_22_2 [J]
Zone,Meter,General:InteriorLights:Electricity:Zone:OFFICE_OPEN_22_2 [J]
Zone,Meter,Electricity:Zone:OFFICE_OPEN_22_3 [J]
Zone,Meter,InteriorLights:Electricity:Zone:OFFICE_OPEN_22_3 [J]
Zone,Meter,General:InteriorLights:Electricity:Zone:OFFICE_OPEN_22_3 [J]
Zone,Meter,Electricity:Zone:OFFICE_OPEN_22_4 [J]
Zone,Meter,InteriorLights:Electricity:Zone:OFFICE_OPEN_22_4 [J]
Zone,Meter,General:InteriorLights:Electricity:Zone:OFFICE_OPEN_22_4 [J]
Zone,Meter,Electricity:Zone:OFFICE_OPEN_22_5 [J]
Zone,Meter,InteriorLights:Electricity:Zone:OFFICE_OPEN_22_5 [J]
Zone,Meter,General:InteriorLights:Electricity:Zone:OFFICE_OPEN_22_5 [J]
Zone,Meter,Electricity:Zone:OFFICE_OPEN_22_6 [J]
Zone,Meter,InteriorLights:Electricity:Zone:OFFICE_OPEN_22_6 [J]
Zone,Meter,General:InteriorLights:Electricity:Zone:OFFICE_OPEN_22_6 [J]
Zone,Meter,Electricity:Zone:LOBBY_23 [J]
Zone,Meter,InteriorLights:Electricity:Zone:LOBBY_23 [J]
Zone,Meter,General:InteriorLights:Electricity:Zone:LOBBY_23 [J]
Zone,Meter,Electricity:Zone:CONFERENCE_23 [J]
Zone,Meter,InteriorLights:Electricity:Zone:CONFERENCE_23 [J]
Zone,Meter,General:InteriorLights:Electricity:Zone:CONFERENCE_23 [J]
Zone,Meter,Electricity:Zone:BREAK_ROOM_23 [J]
Zone,Meter,InteriorLights:Electricity:Zone:BREAK_ROOM_23 [J]
Zone,Meter,General:InteriorLights:Electricity:Zone:BREAK_ROOM_23 [J]
Zone,Meter,Electricity:Zone:MECHANICAL_23 [J]
Zone,Meter,InteriorLights:Electricity:Zone:MECHANICAL_23 [J]
Zone,Meter,General:InteriorLights:Electricity:Zone:MECHANICAL_23 [J]
Zone,Meter,Electricity:Zone:OFFICE_OPEN_23 [J]
Zone,Meter,InteriorLights:Electricity:Zone:OFFICE_OPEN_23 [J]
Zone,Meter,General:InteriorLights:Electricity:Zone:OFFICE_OPEN_23 [J]
Zone,Meter,Electricity:Zone:OFFICE_PRIVATE_23 [J]
Zone,Meter,InteriorLights:Electricity:Zone:OFFICE_PRIVATE_23 [J]
Zone,Meter,General:InteriorLights:Electricity:Zone:OFFICE_PRIVATE_23 [J]
Zone,Meter,Electricity:Zone:STORAGE_23 [J]
Zone,Meter,InteriorLights:Electricity:Zone:STORAGE_23 [J]
Zone,Meter,General:InteriorLights:Electricity:Zone:STORAGE_23 [J]
Zone,Meter,Electricity:Zone:OFFICE_OPEN_23_2 [J]
Zone,Meter,InteriorLights:Electricity:Zone:OFFICE_OPEN_23_2 [J]
Zone,Meter,General:InteriorLights:Electricity:Zone:OFFICE_OPEN_23_2 [J]
Zone,Meter,Electricity:Zone:OFFICE_OPEN_23_3 [J]
Zone,Meter,InteriorLights:Electricity:Zone:OFFICE_OPEN_23_3 [J]
Zone,Meter,General:InteriorLights:Electricity:Zone:OFFICE_OPEN_23_3 [J]
Zone,Meter,Electricity:Zone:OFFICE_OPEN_23_4 [J]
Zone,Meter,InteriorLights:Electricity:Zone:OFFICE_OPEN_23_4 [J]
Zone,Meter,General:InteriorLights:Electricity:Zone:OFFICE_OPEN_23_4 [J]
Zone,Meter,Electricity:Zone:OFFICE_OPEN_23_5 [J]
Zone,Meter,InteriorLights:Electricity:Zone:OFFICE_OPEN_23_5 [J]
Zone,Meter,General:InteriorLights:Electricity:Zone:OFFICE_OPEN_23_5 [J]
Zone,Meter,Electricity:Zone:OFFICE_OPEN_23_6 [J]
Zone,Meter,InteriorLights:Electricity:Zone:OFFICE_OPEN_23_6 [J]
Zone,Meter,General:InteriorLights:Electricity:Zone:OFFICE_OPEN_23_6 [J]
Zone,Meter,Electricity:Zone:OFFICE_OPEN_23_7 [J]
Zone,Meter,InteriorLights:Electricity:Zone:OFFICE_OPEN_23_7 [J]
Zone,Meter,General:InteriorLights:Electricity:Zone:OFFICE_OPEN_23_7 [J]
Zone,Meter,Electricity:Zone:LOBBY_24 [J]
Zone,Meter,InteriorLights:Electricity:Zone:LOBBY_24 [J]
Zone,Meter,General:InteriorLights:Electricity:Zone:LOBBY_24 [J]
Zone,Meter,Electricity:Zone:CONFERENCE_24 [J]
Zone,Meter,InteriorLights:Electricity:Zone:CONFERENCE_24 [J]
Zone,Meter,General:InteriorLights:Electricity:Zone:CONFERENCE_24 [J]
Zone,Meter,Electricity:Zone:BREAK_ROOM_24 [J]
Zone,Meter,InteriorLights:Electricity:Zone:BREAK_ROOM_24 [J]
Zone,Meter,General:InteriorLights:Electricity:Zone:BREAK_ROOM_24 [J]
Zone,Meter,Electricity:Zone:MECHANICAL_24 [J]
Zone,Meter,InteriorLights:Electricity:Zone:MECHANICAL_24 [J]
Zone,Meter,General:InteriorLights:Electricity:Zone:MECHANICAL_24 [J]
Zone,Meter,Electricity:Zone:OFFICE_OPEN_24 [J]
Zone,Meter,InteriorLights:Electricity:Zone:OFFICE_OPEN_24 [J]
Zone,Meter,General:InteriorLights:Electricity:Zone:OFFICE_OPEN_24 [J]
Zone,Meter,Electricity:Zone:OFFICE_PRIVATE_24 [J]
Zone,Meter,InteriorLights:Electricity:Zone:OFFICE_PRIVATE_24 [J]
Zone,Meter,General:InteriorLights:Electricity:Zone:OFFICE_PRIVATE_24 [J]
Zone,Meter,Electricity:Zone:STORAGE_24 [J]
Zone,Meter,InteriorLights:Electricity:Zone:STORAGE_24 [J]
Zone,Meter,General:InteriorLights:Electricity:Zone:STORAGE_24 [J]
Zone,Meter,Electricity:Zone:OFFICE_OPEN_24_2 [J]
Zone,Meter,InteriorLights:Electricity:Zone:OFFICE_OPEN_24_2 [J]
Zone,Meter,General:InteriorLights:Electricity:Zone:OFFICE_OPEN_24_2 [J]
Zone,Meter,Electricity:Zone:OFFICE_OPEN_24_3 [J]
Zone,Meter,InteriorLights:Electricity:Zone:OFFICE_OPEN_24_3 [J]
Zone,Meter,General:InteriorLights:Electricity:Zone:OFFICE_OPEN_24_3 [J]
Zone,Meter,Electricity:Zone:OFFICE_OPEN_24_4 [J]
Zone,Meter,InteriorLights:Electricity:Zone:OFFICE_OPEN_24_4 [J]
Zone,Meter,General:InteriorLights:Electricity:Zone:OFFICE_OPEN_24_4 [J]
Zone,Meter,Electricity:Zone:OFFICE_OPEN_24_5 [J]
Zone,Meter,InteriorLights:Electricity:Zone:OFFICE_OPEN_24_5 [J]
Zone,Meter,General:InteriorLights:Electricity:Zone:OFFICE_OPEN_24_5 [J]
Zone,Meter,Electricity:Zone:OFFICE_OPEN_24_6 [J]
Zone,Meter,InteriorLights:Electricity:Zone:OFFICE_OPEN_24_6 [J]
Zone,Meter,General:InteriorLights:Electricity:Zone:OFFICE_OPEN_24_6 [J]
Zone,Meter,Electricity:Zone:LOBBY_25 [J]
Zone,Meter,InteriorLights:Electricity:Zone:LOBBY_25 [J]
Zone,Meter,General:InteriorLights:Electricity:Zone:LOBBY_25 [J]
Zone,Meter,Electricity:Zone:CONFERENCE_25 [J]
Zone,Meter,InteriorLights:Electricity:Zone:CONFERENCE_25 [J]
Zone,Meter,General:InteriorLights:Electricity:Zone:CONFERENCE_25 [J]
Zone,Meter,Electricity:Zone:BREAK_ROOM_25 [J]
Zone,Meter,InteriorLights:Electricity:Zone:BREAK_ROOM_25 [J]
Zone,Meter,General:InteriorLights:Electricity:Zone:BREAK_ROOM_25 [J]
Zone,Meter,Electricity:Zone:MECHANICAL_25 [J]
Zone,Meter,InteriorLights:Electricity:Zone:MECHANICAL_25 [J]
Zone,Meter,General:InteriorLights:Electricity:Zone:MECHANICAL_25 [J]
Zone,Meter,Electricity:Zone:OFFICE_OPEN_25 [J]
Zone,Meter,InteriorLights:Electricity:Zone:OFFICE_OPEN_25 [J]
Zone,Meter,General:InteriorLights:Electricity:Zone:OFFICE_OPEN_25 [J]
Zone,Meter,Electricity:Zone:OFFICE_PRIVATE_25 [J]
Zone,Meter,InteriorLights:Electricity:Zone:OFFICE_PRIVATE_25 [J]
Zone,Meter,General:InteriorLights:Electricity:Zone:OFFICE_PRIVATE_25 [J]
Zone,Meter,Electricity:Zone:STORAGE_25 [J]
Zone,Meter,InteriorLights:Electricity:Zone:STORAGE_25 [J]
Zone,Meter,General:InteriorLights:Electricity:Zone:STORAGE_25 [J]
Zone,Meter,Electricity:Zone:OFFICE_OPEN_25_2 [J]
Zone,Meter,InteriorLights:Electricity:Zone:OFFICE_OPEN_25_2 [J]
Zone,Meter,General:InteriorLights:Electricity:Zone:OFFICE_OPEN_25_2 [J]
Zone,Meter,Electricity:Zone:OFFICE_OPEN_25_3 [J]
Zone,Meter,InteriorLights:Electricity:Zone:OFFICE_OPEN_25_3 [J]
Zone,Meter,General:InteriorLights:Electricity:Zone:OFFICE_OPEN_25_3 [J]
Zone,Meter,Electricity:Zone:OFFICE_OPEN_25_4 [J]
Zone,Meter,InteriorLights:Electricity:Zone:OFFICE_OPEN_25_4 [J]
Zone,Meter,General:InteriorLights:Electricity:Zone:OFFICE_OPEN_25_4 [J]
Zone,Meter,Electricity:Zone:OFFICE_OPEN_25_5 [J]
Zone,Meter,InteriorLights:Electricity:Zone:OFFICE_OPEN_25_5 [J]
Zone,Meter,General:InteriorLights:Electricity:Zone:OFFICE_OPEN_25_5 [J]
Zone,Meter,Electricity:Zone:OFFICE_OPEN_25_6 [J]
Zone,Meter,InteriorLights:Electricity:Zone:OFFICE_OPEN_25_6 [J]
Zone,Meter,General:InteriorLights:Electricity:Zone:OFFICE_OPEN_25_6 [J]
Zone,Meter,Electricity:Zone:OFFICE_OPEN_25_7 [J]
Zone,Meter,InteriorLights:Electricity:Zone:OFFICE_OPEN_25_7 [J]
Zone,Meter,General:InteriorLights:Electricity:Zone:OFFICE_OPEN_25_7 [J]
Zone,Meter,Electricity:Zone:LOBBY_26 [J]
Zone,Meter,InteriorLights:Electricity:Zone:LOBBY_26 [J]
Zone,Meter,General:InteriorLights:Electricity:Zone:LOBBY_26 [J]
Zone,Meter,Electricity:Zone:CONFERENCE_26 [J]
Zone,Meter,InteriorLights:Electricity:Zone:CONFERENCE_26 [J]
Zone,Meter,General:InteriorLights:Electricity:Zone:CONFERENCE_26 [J]
Zone,Meter,Electricity:Zone:BREAK_ROOM_26 [J]
Zone,Meter,InteriorLights:Electricity:Zone:BREAK_ROOM_26 [J]
Zone,Meter,General:InteriorLights:Electricity:Zone:BREAK_ROOM_26 [J]
Zone,Meter,Electricity:Zone:MECHANICAL_26 [J]
Zone,Meter,InteriorLights:Electricity:Zone:MECHANICAL_26 [J]
Zone,Meter,General:InteriorLights:Electricity:Zone:MECHANICAL_26 [J]
Zone,Meter,Electricity:Zone:OFFICE_OPEN_26 [J]
Zone,Meter,InteriorLights:Electricity:Zone:OFFICE_OPEN_26 [J]
Zone,Meter,General:InteriorLights:Electricity:Zone:OFFICE_OPEN_26 [J]
Zone,Meter,Electricity:Zone:OFFICE_PRIVATE_26 [J]
Zone,Meter,InteriorLights:Electricity:Zone:OFFICE_PRIVATE_26 [J]
Zone,Meter,General:InteriorLights:Electricity:Zone:OFFICE_PRIVATE_26 [J]
Zone,Meter,Electricity:Zone:STORAGE_26 [J]
Zone,Meter,InteriorLights:Electricity:Zone:STORAGE_26 [J]
Zone,Meter,General:InteriorLights:Electricity:Zone:STORAGE_26 [J]
Zone,Meter,Electricity:Zone:OFFICE_OPEN_26_2 [J]
Zone,Meter,InteriorLights:Electricity:Zone:OFFICE_OPEN_26_2 [J]
Zone,Meter,General:InteriorLights:Electricity:Zone:OFFICE_OPEN_26_2 [J]
Zone,Meter,Electricity:Zone:OFFICE_OPEN_26_3 [J]
Zone,Meter,InteriorLights:Electricity:Zone:OFFICE_OPEN_26_3 [J]
Zone,Meter,General:InteriorLights:Electricity:Zone:OFFICE_OPEN_26_3 [J]
Zone,Meter,Electricity:Zone:OFFICE_OPEN_26_4 [J]
Zone,Meter,InteriorLights:Electricity:Zone:OFFICE_OPEN_26_4 [J]
Zone,Meter,General:InteriorLights:Electricity:Zone:OFFICE_OPEN_26_4 [J]
Zone,Meter,Electricity:Zone:OFFICE_OPEN_26_5 [J]
Zone,Meter,InteriorLights:Electricity:Zone:OFFICE_OPEN_26_5 [J]
Zone,Meter,General:InteriorLights:Electricity:Zone:OFFICE_OPEN_26_5 [J]
Zone,Meter,Electricity:Zone:OFFICE_OPEN_26_6 [J]
Zone,Meter,InteriorLights:Electricity:Zone:OFFICE_OPEN_26_6 [J]
Zone,Meter,General:InteriorLights:Electricity:Zone:OFFICE_OPEN_26_6 [J]
Zone,Meter,Electricity:Zone:LOBBY_27 [J]
Zone,Meter,InteriorLights:Electricity:Zone:LOBBY_27 [J]
Zone,Meter,General:InteriorLights:Electricity:Zone:LOBBY_27 [J]
Zone,Meter,Electricity:Zone:CONFERENCE_27 [J]
Zone,Meter,InteriorLights:Electricity:Zone:CONFERENCE_27 [J]
Zone,Meter,General:InteriorLights:Electricity:Zone:CONFERENCE_27 [J]
Zone,Meter,Electricity:Zone:BREAK_ROOM_27 [J]
Zone,Meter,InteriorLights:Electricity:Zone:BREAK_ROOM_27 [J]
Zone,Meter,General:InteriorLights:Electricity:Zone:BREAK_ROOM_27 [J]
Zone,Meter,Electricity:Zone:MECHANICAL_27 [J]
Zone,Meter,InteriorLights:Electricity:Zone:MECHANICAL_27 [J]
Zone,Meter,General:InteriorLights:Electricity:Zone:MECHANICAL_27 [J]
Zone,Meter,Electricity:Zone:OFFICE_OPEN_27 [J]
Zone,Meter,InteriorLights:Electricity:Zone:OFFICE_OPEN_27 [J]
Zone,Meter,General:InteriorLights:Electricity:Zone:OFFICE_OPEN_27 [J]
Zone,Meter,Electricity:Zone:OFFICE_PRIVATE_27 [J]
Zone,Meter,InteriorLights:Electricity:Zone:OFFICE_PRIVATE_27 [J]
Zone,Meter,General:InteriorLights:Electricity:Zone:OFFICE_PRIVATE_27 [J]
Zone,Meter,Electricity:Zone:STORAGE_27 [J]
Zone,Meter,InteriorLights:Electricity:Zone:STORAGE_27 [J]
Zone,Meter,General:InteriorLights:Electricity:Zone:STORAGE_27 [J]
Zone,Meter,Electricity:Zone:OFFICE_OPEN_27_2 [J]
Zone,Meter,InteriorLights:Electricity:Zone:OFFICE_OPEN_27_2 [J]
Zone,Meter,General:InteriorLights:Electricity:Zone:OFFICE_OPEN_27_2 [J]
Zone,Meter,Electricity:Zone:OFFICE_OPEN_27_3 [J]
Zone,Meter,InteriorLights:Electricity:Zone:OFFICE_OPEN_27_3 [J]
Zone,Meter,General:InteriorLights:Electricity:Zone:OFFICE_OPEN_27_3 [J]
Zone,Meter,Electricity:Zone:OFFICE_OPEN_27_4 [J]
Zone,Meter,InteriorLights:Electricity:Zone:OFFICE_OPEN_27_4 [J]
Zone,Meter,General:InteriorLights:Electricity:Zone:OFFICE_OPEN_27_4 [J]
Zone,Meter,Electricity:Zone:OFFICE_OPEN_27_5 [J]
Zone,Meter,InteriorLights:Electricity:Zone:OFFICE_OPEN_27_5 [J]
Zone,Meter,General:InteriorLights:Electricity:Zone:OFFICE_OPEN_27_5 [J]
Zone,Meter,Electricity:Zone:OFFICE_OPEN_27_6 [J]
Zone,Meter,InteriorLights:Electricity:Zone:OFFICE_OPEN_27_6 [J]
Zone,Meter,General:InteriorLights:Electricity:Zone:OFFICE_OPEN_27_6 [J]
Zone,Meter,Electricity:Zone:LOBBY_28 [J]
Zone,Meter,InteriorLights:Electricity:Zone:LOBBY_28 [J]
Zone,Meter,General:InteriorLights:Electricity:Zone:LOBBY_28 [J]
Zone,Meter,Electricity:Zone:CONFERENCE_28 [J]
Zone,Meter,InteriorLights:Electricity:Zone:CONFERENCE_28 [J]
Zone,Meter,General:InteriorLights:Electricity:Zone:CONFERENCE_28 [J]
Zone,Meter,Electricity:Zone:BREAK_ROOM_28 [J]
Zone,Meter,InteriorLights:Electricity:Zone:BREAK_ROOM_28 [J]
Zone,Meter,General:InteriorLights:Electricity:Zone:BREAK_ROOM_28 [J]
Zone,Meter,Electricity:Zone:MECHANICAL_28 [J]
Zone,Meter,InteriorLights:Electricity:Zone:MECHANICAL_28 [J]
Zone,Meter,General:InteriorLights:Electricity:Zone:MECHANICAL_28 [J]
Zone,Meter,Electricity:Zone:OFFICE_OPEN_28 [J]
Zone,Meter,InteriorLights:Electricity:Zone:OFFICE_OPEN_28 [J]
Zone,Meter,General:InteriorLights:Electricity:Zone:OFFICE_OPEN_28 [J]
Zone,Meter,Electricity:Zone:OFFICE_PRIVATE_28 [J]
Zone,Meter,InteriorLights:Electricity:Zone:OFFICE_PRIVATE_28 [J]
Zone,Meter,General:InteriorLights:Electricity:Zone:OFFICE_PRIVATE_28 [J]
Zone,Meter,Electricity:Zone:STORAGE_28 [J]
Zone,Meter,InteriorLights:Electricity:Zone:STORAGE_28 [J]
Zone,Meter,General:InteriorLights:Electricity:Zone:STORAGE_28 [J]
Zone,Meter,Electricity:Zone:OFFICE_OPEN_28_2 [J]
Zone,Meter,InteriorLights:Electricity:Zone:OFFICE_OPEN_28_2 [J]
Zone,Meter,General:InteriorLights:Electricity:Zone:OFFICE_OPEN_28_2 [J]
Zone,Meter,Electricity:Zone:OFFICE_OPEN_28_3 [J]
Zone,Meter,InteriorLights:Electricity:Zone:OFFICE_OPEN_28_3 [J]
Zone,Meter,General:InteriorLights:Electricity:Zone:OFFICE_OPEN_28_3 [J]
Zone,Meter,Electricity:Zone:OFFICE_OPEN_28_4 [J]
Zone,Meter,InteriorLights:Electricity:Zone:OFFICE_OPEN_28_4 [J]
Zone,Meter,General:InteriorLights:Electricity:Zone:OFFICE_OPEN_28_4 [J]
Zone,Meter,Electricity:Zone:OFFICE_OPEN_28_5 [J]
Zone,Meter,InteriorLights:Electricity:Zone:OFFICE_OPEN_28_5 [J]
Zone,Meter,General:InteriorLights:Electricity:Zone:OFFICE_OPEN_28_5 [J]
Zone,Meter,Electricity:Zone:OFFICE_OPEN_28_6 [J]
Zone,Meter,InteriorLights:Electricity:Zone:OFFICE_OPEN_28_6 [J]
Zone,Meter,General:InteriorLights:Electricity:Zone:OFFICE_OPEN_28_6 [J]
Zone,Meter,Electricity:Zone:OFFICE_OPEN_28_7 [J]
Zone,Meter,InteriorLights:Electricity:Zone:OFFICE_OPEN_28_7 [J]
Zone,Meter,General:InteriorLights:Electricity:Zone:OFFICE_OPEN_28_7 [J]
Zone,Meter,Electricity:Zone:LOBBY_29 [J]
Zone,Meter,InteriorLights:Electricity:Zone:LOBBY_29 [J]
Zone,Meter,General:InteriorLights:Electricity:Zone:LOBBY_29 [J]
Zone,Meter,Electricity:Zone:CONFERENCE_29 [J]
Zone,Meter,InteriorLights:Electricity:Zone:CONFERENCE_29 [J]
Zone,Meter,General:InteriorLights:Electricity:Zone:CONFERENCE_29 [J]
Zone,Meter,Electricity:Zone:BREAK_ROOM_29 [J]
Zone,Meter,InteriorLights:Electricity:Zone:BREAK_ROOM_29 [J]
Zone,Meter,General:InteriorLights:Electricity:Zone:BREAK_ROOM_29 [J]
Zone,Meter,Electricity:Zone:MECHANICAL_29 [J]
Zone,Meter,InteriorLights:Electricity:Zone:MECHANICAL_29 [J]
Zone,Meter,General:InteriorLights:Electricity:Zone:MECHANICAL_29 [J]
Zone,Meter,Electricity:Zone:OFFICE_OPEN_29 [J]
Zone,Meter,InteriorLights:Electricity:Zone:OFFICE_OPEN_29 [J]
Zone,Meter,General:InteriorLights:Electricity:Zone:OFFICE_OPEN_29 [J]
Zone,Meter,Electricity:Zone:OFFICE_PRIVATE_29 [J]
Zone,Meter,InteriorLights:Electricity:Zone:OFFICE_PRIVATE_29 [J]
Zone,Meter,General:InteriorLights:Electricity:Zone:OFFICE_PRIVATE_29 [J]
Zone,Meter,Electricity:Zone:STORAGE_29 [J]
Zone,Meter,InteriorLights:Electricity:Zone:STORAGE_29 [J]
Zone,Meter,General:InteriorLights:Electricity:Zone:STORAGE_29 [J]
Zone,Meter,Electricity:Zone:OFFICE_OPEN_29_2 [J]
Zone,Meter,InteriorLights:Electricity:Zone:OFFICE_OPEN_29_2 [J]
Zone,Meter,General:InteriorLights:Electricity:Zone:OFFICE_OPEN_29_2 [J]
Zone,Meter,Electricity:Zone:OFFICE_OPEN_29_3 [J]
Zone,Meter,InteriorLights:Electricity:Zone:OFFICE_OPEN_29_3 [J]
Zone,Meter,General:InteriorLights:Electricity:Zone:OFFICE_OPEN_29_3 [J]
Zone,Meter,Electricity:Zone:OFFICE_OPEN_29_4 [J]
Zone,Meter,InteriorLights:Electricity:Zone:OFFICE_OPEN_29_4 [J]
Zone,Meter,General:InteriorLights:Electricity:Zone:OFFICE_OPEN_29_4 [J]
Zone,Meter,Electricity:Zone:OFFICE_OPEN_29_5 [J]
Zone,Meter,InteriorLights:Electricity:Zone:OFFICE_OPEN_29_5 [J]
Zone,Meter,General:InteriorLights:Electricity:Zone:OFFICE_OPEN_29_5 [J]
Zone,Meter,Electricity:Zone:OFFICE_OPEN_29_6 [J]
Zone,Meter,InteriorLights:Electricity:Zone:OFFICE_OPEN_29_6 [J]
Zone,Meter,General:InteriorLights:Electricity:Zone:OFFICE_OPEN_29_6 [J]
Zone,Meter,Electricity:Zone:OFFICE_OPEN_29_7 [J]
Zone,Meter,InteriorLights:Electricity:Zone:OFFICE_OPEN_29_7 [J]
Zone,Meter,General:InteriorLights:Electricity:Zone:OFFICE_OPEN_29_7 [J]
Zone,Meter,Electricity:Zone:LOBBY_30 [J]
Zone,Meter,InteriorLights:Electricity:Zone:LOBBY_30 [J]
Zone,Meter,General:InteriorLights:Electricity:Zone:LOBBY_30 [J]
Zone,Meter,Electricity:Zone:CONFERENCE_30 [J]
Zone,Meter,InteriorLights:Electricity:Zone:CONFERENCE_30 [J]
Zone,Meter,General:InteriorLights:Electricity:Zone:CONFERENCE_30 [J]
Zone,Meter,Electricity:Zone:BREAK_ROOM_30 [J]
Zone,Meter,InteriorLights:Electricity:Zone:BREAK_ROOM_30 [J]
Zone,Meter,General:InteriorLights:Electricity:Zone:BREAK_ROOM_30 [J]
Zone,Meter,Electricity:Zone:MECHANICAL_30 [J]
Zone,Meter,InteriorLights:Electricity:Zone:MECHANICAL_30 [J]
Zone,Meter,General:InteriorLights:Electricity:Zone:MECHANICAL_30 [J]
Zone,Meter,Electricity:Zone:OFFICE_OPEN_30 [J]
Zone,Meter,InteriorLights:Electricity:Zone:OFFICE_OPEN_30 [J]
Zone,Meter,General:InteriorLights:Electricity:Zone:OFFICE_OPEN_30 [J]
Zone,Meter,Electricity:Zone:OFFICE_PRIVATE_30 [J]
Zone,Meter,InteriorLights:Electricity:Zone:OFFICE_PRIVATE_30 [J]
Zone,Meter,General:InteriorLights:Electricity:Zone:OFFICE_PRIVATE_30 [J]
Zone,Meter,Electricity:Zone:STORAGE_30 [J]
Zone,Meter,InteriorLights:Electricity:Zone:STORAGE_30 [J]
Zone,Meter,General:InteriorLights:Electricity:Zone:STORAGE_30 [J]
Zone,Meter,Electricity:Zone:OFFICE_OPEN_30_2 [J]
Zone,Meter,InteriorLights:Electricity:Zone:OFFICE_OPEN_30_2 [J]
Zone,Meter,General:InteriorLights:Electricity:Zone:OFFICE_OPEN_30_2 [J]
Zone,Meter,Electricity:Zone:OFFICE_OPEN_30_3 [J]
Zone,Meter,InteriorLights:Electricity:Zone:OFFICE_OPEN_30_3 [J]
Zone,Meter,General:InteriorLights:Electricity:Zone:OFFICE_OPEN_30_3 [J]
Zone,Meter,Electricity:Zone:OFFICE_OPEN_30_4 [J]
Zone,Meter,InteriorLights:Electricity:Zone:OFFICE_OPEN_30_4 [J]
Zone,Meter,General:InteriorLights:Electricity:Zone:OFFICE_OPEN_30_4 [J]
Zone,Meter,Electricity:Zone:OFFICE_OPEN_30_5 [J]
Zone,Meter,InteriorLights:Electricity:Zone:OFFICE_OPEN_30_5 [J]
Zone,Meter,General:InteriorLights:Electricity:Zone:OFFICE_OPEN_30_5 [J]
Zone,Meter,Electricity:Zone:OFFICE_OPEN_30_6 [J]
Zone,Meter,InteriorLights:Electricity:Zone:OFFICE_OPEN_30_6 [J]
Zone,Meter,General:InteriorLights:Electricity:Zone:OFFICE_OPEN_30_6 [J]
Zone,Meter,Electricity:Zone:OFFICE_OPEN_30_7 [J]
Zone,Meter,InteriorLights:Electricity:Zone:OFFICE_OPEN_30_7 [J]
Zone,Meter,General:InteriorLights:Electricity:Zone:OFFICE_OPEN_30_7 [J]
Zone,Meter,Electricity:Zone:LOBBY_31 [J]
Zone,Meter,InteriorLights:Electricity:Zone:LOBBY_31 [J]
Zone,Meter,General:InteriorLights:Electricity:Zone:LOBBY_31 [J]
Zone,Meter,Electricity:Zone:CONFERENCE_31 [J]
Zone,Meter,InteriorLights:Electricity:Zone:CONFERENCE_31 [J]
Zone,Meter,General:InteriorLights:Electricity:Zone:CONFERENCE_31 [J]
Zone,Meter,Electricity:Zone:BREAK_ROOM_31 [J]
Zone,Meter,InteriorLights:Electricity:Zone:BREAK_ROOM_31 [J]
Zone,Meter,General:InteriorLights:Electricity:Zone:BREAK_ROOM_31 [J]
Zone,Meter,Electricity:Zone:MECHANICAL_31 [J]
Zone,Meter,InteriorLights:Electricity:Zone:MECHANICAL_31 [J]
Zone,Meter,General:InteriorLights:Electricity:Zone:MECHANICAL_31 [J]
Zone,Meter,Electricity:Zone:OFFICE_OPEN_31 [J]
Zone,Meter,InteriorLights:Electricity:Zone:OFFICE_OPEN_31 [J]
Zone,Meter,General:InteriorLights:Electricity:Zone:OFFICE_OPEN_31 [J]
Zone,Meter,Electricity:Zone:OFFICE_PRIVATE_31 [J]
Zone,Meter,InteriorLights:Electricity:Zone:OFFICE_PRIVATE_31 [J]
Zone,Meter,General:InteriorLights:Electricity:Zone:OFFICE_PRIVATE_31 [J]
Zone,Meter,Electricity:Zone:STORAGE_31 [J]
Zone,Meter,InteriorLights:Electricity:Zone:STORAGE_31 [J]
Zone,Meter,General:InteriorLights:Electricity:Zone:STORAGE_31 [J]
Zone,Meter,Electricity:Zone:OFFICE_OPEN_31_2 [J]
Zone,Meter,InteriorLights:Electricity:Zone:OFFICE_OPEN_31_2 [J]
Zone,Meter,General:InteriorLights:Electricity:Zone:OFFICE_OPEN_31_2 [J]
Zone,Meter,Electricity:Zone:OFFICE_OPEN_31_3 [J]
Zone,Meter,InteriorLights:Electricity:Zone:OFFICE_OPEN_31_3 [J]
Zone,Meter,General:InteriorLights:Electricity:Zone:OFFICE_OPEN_31_3 [J]
Zone,Meter,Electricity:Zone:OFFICE_OPEN_31_4 [J]
Zone,Meter,InteriorLights:Electricity:Zone:OFFICE_OPEN_31_4 [J]
Zone,Meter,General:InteriorLights:Electricity:Zone:OFFICE_OPEN_31_4 [J]
Zone,Meter,Electricity:Zone:OFFICE_OPEN_31_5 [J]
Zone,Meter,InteriorLights:Electricity:Zone:OFFICE_OPEN_31_5 [J]
Zone,Meter,General:InteriorLights:Electricity:Zone:OFFICE_OPEN_31_5 [J]
Zone,Meter,Electricity:Zone:OFFICE_OPEN_31_6 [J]
Zone,Meter,InteriorLights:Electricity:Zone:OFFICE_OPEN_31_6 [J]
Zone,Meter,General:InteriorLights:Electricity:Zone:OFFICE_OPEN_31_6 [J]
Zone,Meter,Electricity:Zone:OFFICE_OPEN_31_7 [J]
Zone,Meter,InteriorLights:Electricity:Zone:OFFICE_OPEN_31_7 [J]
Zone,Meter,General:InteriorLights:Electricity:Zone:OFFICE_OPEN_31_7 [J]
Zone,Meter,Electricity:Zone:LOBBY_32 [J]
Zone,Meter,InteriorLights:Electricity:Zone:LOBBY_32 [J]
Zone,Meter,General:InteriorLights:Electricity:Zone:LOBBY_32 [J]
Zone,Meter,Electricity:Zone:CONFERENCE_32 [J]
Zone,Meter,InteriorLights:Electricity:Zone:CONFERENCE_32 [J]
Zone,Meter,General:InteriorLights:Electricity:Zone:CONFERENCE_32 [J]
Zone,Meter,Electricity:Zone:BREAK_ROOM_32 [J]
Zone,Meter,InteriorLights:Electricity:Zone:BREAK_ROOM_32 [J]
Zone,Meter,General:InteriorLights:Electricity:Zone:BREAK_ROOM_32 [J]
Zone,Meter,Electricity:Zone:MECHANICAL_32 [J]
Zone,Meter,InteriorLights:Electricity:Zone:MECHANICAL_32 [J]
Zone,Meter,General:InteriorLights:Electricity:Zone:MECHANICAL_32 [J]
Zone,Meter,Electricity:Zone:OFFICE_OPEN_32 [J]
Zone,Meter,InteriorLights:Electricity:Zone:OFFICE_OPEN_32 [J]
Zone,Meter,General:InteriorLights:Electricity:Zone:OFFICE_OPEN_32 [J]
Zone,Meter,Electricity:Zone:OFFICE_PRIVATE_32 [J]
Zone,Meter,InteriorLights:Electricity:Zone:OFFICE_PRIVATE_32 [J]
Zone,Meter,General:InteriorLights:Electricity:Zone:OFFICE_PRIVATE_32 [J]
Zone,Meter,Electricity:Zone:STORAGE_32 [J]
Zone,Meter,InteriorLights:Electricity:Zone:STORAGE_32 [J]
Zone,Meter,General:InteriorLights:Electricity:Zone:STORAGE_32 [J]
Zone,Meter,Electricity:Zone:OFFICE_OPEN_32_2 [J]
Zone,Meter,InteriorLights:Electricity:Zone:OFFICE_OPEN_32_2 [J]
Zone,Meter,General:InteriorLights:Electricity:Zone:OFFICE_OPEN_32_2 [J]
Zone,Meter,Electricity:Zone:OFFICE_OPEN_32_3 [J]
Zone,Meter,InteriorLights:Electricity:Zone:OFFICE_OPEN_32_3 [J]
Zone,Meter,General:InteriorLights:Electricity:Zone:OFFICE_OPEN_32_3 [J]
Zone,Meter,Electricity:Zone:OFFICE_OPEN_32_4 [J]
Zone,Meter,InteriorLights:Electricity:Zone:OFFICE_OPEN_32_4 [J]
Zone,Meter,General:InteriorLights:Electricity:Zone:OFFICE_OPEN_32_4 [J]
Zone,Meter,Electricity:Zone:OFFICE_OPEN_32_5 [J]
Zone,Meter,InteriorLights:Electricity:Zone:OFFICE_OPEN_32_5 [J]
Zone,Meter,General:InteriorLights:Electricity:Zone:OFFICE_OPEN_32_5 [J]
Zone,Meter,Electricity:Zone:OFFICE_OPEN_32_6 [J]
Zone,Meter,InteriorLights:Electricity:Zone:OFFICE_OPEN_32_6 [J]
Zone,Meter,General:InteriorLights:Electricity:Zone:OFFICE_OPEN_32_6 [J]
Zone,Meter,Electricity:Zone:LOBBY_33 [J]
Zone,Meter,InteriorLights:Electricity:Zone:LOBBY_33 [J]
Zone,Meter,General:InteriorLights:Electricity:Zone:LOBBY_33 [J]
Zone,Meter,Electricity:Zone:CONFERENCE_33 [J]
Zone,Meter,InteriorLights:Electricity:Zone:CONFERENCE_33 [J]
Zone,Meter,General:InteriorLights:Electricity:Zone:CONFERENCE_33 [J]
Zone,Meter,Electricity:Zone:BREAK_ROOM_33 [J]
Zone,Meter,InteriorLights:Electricity:Zone:BREAK_ROOM_33 [J]
Zone,Meter,General:InteriorLights:Electricity:Zone:BREAK_ROOM_33 [J]
Zone,Meter,Electricity:Zone:MECHANICAL_33 [J]
Zone,Meter,InteriorLights:Electricity:Zone:MECHANICAL_33 [J]
Zone,Meter,General:InteriorLights:Electricity:Zone:MECHANICAL_33 [J]
Zone,Meter,Electricity:Zone:OFFICE_OPEN_33 [J]
Zone,Meter,InteriorLights:Electricity:Zone:OFFICE_OPEN_33 [J]
Zone,Meter,General:InteriorLights:Electricity:Zone:OFFICE_OPEN_33 [J]
Zone,Meter,Electricity:Zone:OFFICE_PRIVATE_33 [J]
Zone,Meter,InteriorLights:Electricity:Zone:OFFICE_PRIVATE_33 [J]
Zone,Meter,General:InteriorLights:Electricity:Zone:OFFICE_PRIVATE_33 [J]
Zone,Meter,Electricity:Zone:STORAGE_33 [J]
Zone,Meter,InteriorLights:Electricity:Zone:STORAGE_33 [J]
Zone,Meter,General:InteriorLights:Electricity:Zone:STORAGE_33 [J]
Zone,Meter,Electricity:Zone:OFFICE_OPEN_33_2 [J]
Zone,Meter,InteriorLights:Electricity:Zone:OFFICE_OPEN_33_2 [J]
Zone,Meter,General:InteriorLights:Electricity:Zone:OFFICE_OPEN_33_2 [J]
Zone,Meter,Electricity:Zone:OFFICE_OPEN_33_3 [J]
Zone,Meter,InteriorLights:Electricity:Zone:OFFICE_OPEN_33_3 [J]
Zone,Meter,General:InteriorLights:Electricity:Zone:OFFICE_OPEN_33_3 [J]
Zone,Meter,Electricity:Zone:OFFICE_OPEN_33_4 [J]
Zone,Meter,InteriorLights:Electricity:Zone:OFFICE_OPEN_33_4 [J]
Zone,Meter,General:InteriorLights:Electricity:Zone:OFFICE_OPEN_33_4 [J]
Zone,Meter,Electricity:Zone:OFFICE_OPEN_33_5 [J]
Zone,Meter,InteriorLights:Electricity:Zone:OFFICE_OPEN_33_5 [J]
Zone,Meter,General:InteriorLights:Electricity:Zone:OFFICE_OPEN_33_5 [J]
Zone,Meter,Electricity:Zone:OFFICE_OPEN_33_6 [J]
Zone,Meter,InteriorLights:Electricity:Zone:OFFICE_OPEN_33_6 [J]
Zone,Meter,General:InteriorLights:Electricity:Zone:OFFICE_OPEN_33_6 [J]
Zone,Meter,Electricity:Zone:OFFICE_OPEN_33_7 [J]
Zone,Meter,InteriorLights:Electricity:Zone:OFFICE_OPEN_33_7 [J]
Zone,Meter,General:InteriorLights:Electricity:Zone:OFFICE_OPEN_33_7 [J]
Zone,Meter,Electricity:Zone:LOBBY_34 [J]
Zone,Meter,InteriorLights:Electricity:Zone:LOBBY_34 [J]
Zone,Meter,General:InteriorLights:Electricity:Zone:LOBBY_34 [J]
Zone,Meter,Electricity:Zone:CONFERENCE_34 [J]
Zone,Meter,InteriorLights:Electricity:Zone:CONFERENCE_34 [J]
Zone,Meter,General:InteriorLights:Electricity:Zone:CONFERENCE_34 [J]
Zone,Meter,Electricity:Zone:BREAK_ROOM_34 [J]
Zone,Meter,InteriorLights:Electricity:Zone:BREAK_ROOM_34 [J]
Zone,Meter,General:InteriorLights:Electricity:Zone:BREAK_ROOM_34 [J]
Zone,Meter,Electricity:Zone:MECHANICAL_34 [J]
Zone,Meter,InteriorLights:Electricity:Zone:MECHANICAL_34 [J]
Zone,Meter,General:InteriorLights:Electricity:Zone:MECHANICAL_34 [J]
Zone,Meter,Electricity:Zone:OFFICE_OPEN_34 [J]
Zone,Meter,InteriorLights:Electricity:Zone:OFFICE_OPEN_34 [J]
Zone,Meter,General:InteriorLights:Electricity:Zone:OFFICE_OPEN_34 [J]
Zone,Meter,Electricity:Zone:OFFICE_PRIVATE_34 [J]
Zone,Meter,InteriorLights:Electricity:Zone:OFFICE_PRIVATE_34 [J]
Zone,Meter,General:InteriorLights:Electricity:Zone:OFFICE_PRIVATE_34 [J]
Zone,Meter,Electricity:Zone:STORAGE_34 [J]
Zone,Meter,InteriorLights:Electricity:Zone:STORAGE_34 [J]
Zone,Meter,General:InteriorLights:Electricity:Zone:STORAGE_34 [J]
Zone,Meter,Electricity:Zone:OFFICE_OPEN_34_2 [J]
Zone,Meter,InteriorLights:Electricity:Zone:OFFICE_OPEN_34_2 [J]
Zone,Meter,General:InteriorLights:Electricity:Zone:OFFICE_OPEN_34_2 [J]
Zone,Meter,Electricity:Zone:OFFICE_OPEN_34_3 [J]
Zone,Meter,InteriorLights:Electricity:Zone:OFFICE_OPEN_34_3 [J]
Zone,Meter,General:InteriorLights:Electricity:Zone:OFFICE_OPEN_34_3 [J]
Zone,Meter,Electricity:Zone:OFFICE_OPEN_34_4 [J]
Zone,Meter,InteriorLights:Electricity:Zone:OFFICE_OPEN_34_4 [J]
Zone,Meter,General:InteriorLights:Electricity:Zone:OFFICE_OPEN_34_4 [J]
Zone,Meter,Electricity:Zone:OFFICE_OPEN_34_5 [J]
Zone,Meter,InteriorLights:Electricity:Zone:OFFICE_OPEN_34_5 [J]
Zone,Meter,General:InteriorLights:Electricity:Zone:OFFICE_OPEN_34_5 [J]
Zone,Meter,Electricity:Zone:OFFICE_OPEN_34_6 [J]
Zone,Meter,InteriorLights:Electricity:Zone:OFFICE_OPEN_34_6 [J]
Zone,Meter,General:InteriorLights:Electricity:Zone:OFFICE_OPEN_34_6 [J]
Zone,Meter,Electricity:Zone:LOBBY_35 [J]
Zone,Meter,InteriorLights:Electricity:Zone:LOBBY_35 [J]
Zone,Meter,General:InteriorLights:Electricity:Zone:LOBBY_35 [J]
Zone,Meter,Electricity:Zone:CONFERENCE_35 [J]
Zone,Meter,InteriorLights:Electricity:Zone:CONFERENCE_35 [J]
Zone,Meter,General:InteriorLights:Electricity:Zone:CONFERENCE_35 [J]
Zone,Meter,Electricity:Zone:BREAK_ROOM_35 [J]
Zone,Meter,InteriorLights:Electricity:Zone:BREAK_ROOM_35 [J]
Zone,Meter,General:InteriorLights:Electricity:Zone:BREAK_ROOM_35 [J]
Zone,Meter,Electricity:Zone:MECHANICAL_35 [J]
Zone,Meter,InteriorLights:Electricity:Zone:MECHANICAL_35 [J]
Zone,Meter,General:InteriorLights:Electricity:Zone:MECHANICAL_35 [J]
Zone,Meter,Electricity:Zone:OFFICE_OPEN_35 [J]
Zone,Meter,InteriorLights:Electricity:Zone:OFFICE_OPEN_35 [J]
Zone,Meter,General:InteriorLights:Electricity:Zone:OFFICE_OPEN_35 [J]
Zone,Meter,Electricity:Zone:OFFICE_PRIVATE_35 [J]
Zone,Meter,InteriorLights:Electricity:Zone:OFFICE_PRIVATE_35 [J]
Zone,Meter,General:InteriorLights:Electricity:Zone:OFFICE_PRIVATE_35 [J]
Zone,Meter,Electricity:Zone:STORAGE_35 [J]
Zone,Meter,InteriorLights:Electricity:Zone:STORAGE_35 [J]
Zone,Meter,General:InteriorLights:Electricity:Zone:STORAGE_35 [J]
Zone,Meter,Electricity:Zone:OFFICE_OPEN_35_2 [J]
Zone,Meter,InteriorLights:Electricity:Zone:OFFICE_OPEN_35_2 [J]
Zone,Meter,General:InteriorLights:Electricity:Zone:OFFICE_OPEN_35_2 [J]
Zone,Meter,Electricity:Zone:OFFICE_OPEN_35_3 [J]
Zone,Meter,InteriorLights:Electricity:Zone:OFFICE_OPEN_35_3 [J]
Zone,Meter,General:InteriorLights:Electricity:Zone:OFFICE_OPEN_35_3 [J]
Zone,Meter,Electricity:Zone:OFFICE_OPEN_35_4 [J]
Zone,Meter,InteriorLights:Electricity:Zone:OFFICE_OPEN_35_4 [J]
Zone,Meter,General:InteriorLights:Electricity:Zone:OFFICE_OPEN_35_4 [J]
Zone,Meter,Electricity:Zone:OFFICE_OPEN_35_5 [J]
Zone,Meter,InteriorLights:Electricity:Zone:OFFICE_OPEN_35_5 [J]
Zone,Meter,General:InteriorLights:Electricity:Zone:OFFICE_OPEN_35_5 [J]
Zone,Meter,Electricity:Zone:OFFICE_OPEN_35_6 [J]
Zone,Meter,InteriorLights:Electricity:Zone:OFFICE_OPEN_35_6 [J]
[...]
Zone,Meter,Cooling:EnergyTransfer:Zone:OFFICE_OPEN_42_5 [J]
Zone,Meter,General:Cooling:EnergyTransfer:Zone:OFFICE_OPEN_42_5 [J]
Zone,Meter,EnergyTransfer:Zone:OFFICE_OPEN_42_6 [J]
Zone,Meter,Heating:EnergyTransfer:Zone:OFFICE_OPEN_42_6 [J]
Zone,Meter,General:Heating:EnergyTransfer:Zone:OFFICE_OPEN_42_6 [J]
Zone,Meter,Cooling:EnergyTransfer:Zone:OFFICE_OPEN_42_6 [J]
Zone,Meter,General:Cooling:EnergyTransfer:Zone:OFFICE_OPEN_42_6 [J]
Zone,Meter,EnergyTransfer:Zone:OFFICE_OPEN_42_7 [J]
Zone,Meter,Heating:EnergyTransfer:Zone:OFFICE_OPEN_42_7 [J]
Zone,Meter,General:Heating:EnergyTransfer:Zone:OFFICE_OPEN_42_7 [J]
Zone,Meter,Cooling:EnergyTransfer:Zone:OFFICE_OPEN_42_7 [J]
Zone,Meter,General:Cooling:EnergyTransfer:Zone:OFFICE_OPEN_42_7 [J]
Zone,Meter,EnergyTransfer:Zone:LOBBY_43 [J]
Zone,Meter,Heating:EnergyTransfer:Zone:LOBBY_43 [J]
Zone,Meter,General:Heating:EnergyTransfer:Zone:LOBBY_43 [J]
Zone,Meter,Cooling:EnergyTransfer:Zone:LOBBY_43 [J]
Zone,Meter,General:Cooling:EnergyTransfer:Zone:LOBBY_43 [J]
Zone,Meter,EnergyTransfer:Zone:CONFERENCE_43 [J]
Zone,Meter,Heating:EnergyTransfer:Zone:CONFERENCE_43 [J]
Zone,Meter,General:Heating:EnergyTransfer:Zone:CONFERENCE_43 [J]
Zone,Meter,Cooling:EnergyTransfer:Zone:CONFERENCE_43 [J]
Zone,Meter,General:Cooling:EnergyTransfer:Zone:CONFERENCE_43 [J]
Zone,Meter,EnergyTransfer:Zone:BREAK_ROOM_43 [J]
Zone,Meter,Heating:EnergyTransfer:Zone:BREAK_ROOM_43 [J]
Zone,Meter,General:Heating:EnergyTransfer:Zone:BREAK_ROOM_43 [J]
Zone,Meter,Cooling:EnergyTransfer:Zone:BREAK_ROOM_43 [J]
Zone,Meter,General:Cooling:EnergyTransfer:Zone:BREAK_ROOM_43 [J]
Zone,Meter,EnergyTransfer:Zone:MECHANICAL_43 [J]
Zone,Meter,Heating:EnergyTransfer:Zone:MECHANICAL_43 [J]
Zone,Meter,General:Heating:EnergyTransfer:Zone:MECHANICAL_43 [J]
Zone,Meter,Cooling:EnergyTransfer:Zone:MECHANICAL_43 [J]
Zone,Meter,General:Cooling:EnergyTransfer:Zone:MECHANICAL_43 [J]
Zone,Meter,EnergyTransfer:Zone:OFFICE_OPEN_43 [J]
Zone,Meter,Heating:EnergyTransfer:Zone:OFFICE_OPEN_43 [J]
Zone,Meter,General:Heating:EnergyTransfer:Zone:OFFICE_OPEN_43 [J]
Zone,Meter,Cooling:EnergyTransfer:Zone:OFFICE_OPEN_43 [J]
Zone,Meter,General:Cooling:EnergyTransfer:Zone:OFFICE_OPEN_43 [J]
Zone,Meter,EnergyTransfer:Zone:OFFICE_PRIVATE_43 [J]
Zone,Meter,Heating:EnergyTransfer:Zone:OFFICE_PRIVATE_43 [J]
Zone,Meter,General:Heating:EnergyTransfer:Zone:OFFICE_PRIVATE_43 [J]
Zone,Meter,Cooling:EnergyTransfer:Zone:OFFICE_PRIVATE_43 [J]
Zone,Meter,General:Cooling:EnergyTransfer:Zone:OFFICE_PRIVATE_43 [J]
Zone,Meter,EnergyTransfer:Zone:STORAGE_43 [J]
Zone,Meter,Heating:EnergyTransfer:Zone:STORAGE_43 [J]
Zone,Meter,General:Heating:EnergyTransfer:Zone:STORAGE_43 [J]
Zone,Meter,Cooling:EnergyTransfer:Zone:STORAGE_43 [J]
Zone,Meter,General:Cooling:EnergyTransfer:Zone:STORAGE_43 [J]
Zone,Meter,EnergyTransfer:Zone:OFFICE_OPEN_43_2 [J]
Zone,Meter,Heating:EnergyTransfer:Zone:OFFICE_OPEN_43_2 [J]
Zone,Meter,General:Heating:EnergyTransfer:Zone:OFFICE_OPEN_43_2 [J]
Zone,Meter,Cooling:EnergyTransfer:Zone:OFFICE_OPEN_43_2 [J]
Zone,Meter,General:Cooling:EnergyTransfer:Zone:OFFICE_OPEN_43_2 [J]
Zone,Meter,EnergyTransfer:Zone:OFFICE_OPEN_43_3 [J]
Zone,Meter,Heating:EnergyTransfer:Zone:OFFICE_OPEN_43_3 [J]
Zone,Meter,General:Heating:EnergyTransfer:Zone:OFFICE_OPEN_43_3 [J]
Zone,Meter,Cooling:EnergyTransfer:Zone:OFFICE_OPEN_43_3 [J]
Zone,Meter,General:Cooling:EnergyTransfer:Zone:OFFICE_OPEN_43_3 [J]
Zone,Meter,EnergyTransfer:Zone:OFFICE_OPEN_43_4 [J]
Zone,Meter,Heating:EnergyTransfer:Zone:OFFICE_OPEN_43_4 [J]
Zone,Meter,General:Heating:EnergyTransfer:Zone:OFFICE_OPEN_43_4 [J]
Zone,Meter,Cooling:EnergyTransfer:Zone:OFFICE_OPEN_43_4 [J]
Zone,Meter,General:Cooling:EnergyTransfer:Zone:OFFICE_OPEN_43_4 [J]
Zone,Meter,EnergyTransfer:Zone:OFFICE_OPEN_43_5 [J]
Zone,Meter,Heating:EnergyTransfer:Zone:OFFICE_OPEN_43_5 [J]
Zone,Meter,General:Heating:EnergyTransfer:Zone:OFFICE_OPEN_43_5 [J]
Zone,Meter,Cooling:EnergyTransfer:Zone:OFFICE_OPEN_43_5 [J]
Zone,Meter,General:Cooling:EnergyTransfer:Zone:OFFICE_OPEN_43_5 [J]
Zone,Meter,EnergyTransfer:Zone:OFFICE_OPEN_43_6 [J]
Zone,Meter,Heating:EnergyTransfer:Zone:OFFICE_OPEN_43_6 [J]
Zone,Meter,General:Heating:EnergyTransfer:Zone:OFFICE_OPEN_43_6 [J]
Zone,Meter,Cooling:EnergyTransfer:Zone:OFFICE_OPEN_43_6 [J]
Zone,Meter,General:Cooling:EnergyTransfer:Zone:OFFICE_OPEN_43_6 [J]
Zone,Meter,EnergyTransfer:Zone:LOBBY_44 [J]
Zone,Meter,Heating:EnergyTransfer:Zone:LOBBY_44 [J]
Zone,Meter,General:Heating:EnergyTransfer:Zone:LOBBY_44 [J]
Zone,Meter,Cooling:EnergyTransfer:Zone:LOBBY_44 [J]
Zone,Meter,General:Cooling:EnergyTransfer:Zone:LOBBY_44 [J]
Zone,Meter,EnergyTransfer:Zone:CONFERENCE_44 [J]
Zone,Meter,Heating:EnergyTransfer:Zone:CONFERENCE_44 [J]
Zone,Meter,General:Heating:EnergyTransfer:Zone:CONFERENCE_44 [J]
Zone,Meter,Cooling:EnergyTransfer:Zone:CONFERENCE_44 [J]
Zone,Meter,General:Cooling:EnergyTransfer:Zone:CONFERENCE_44 [J]
Zone,Meter,EnergyTransfer:Zone:BREAK_ROOM_44 [J]
Zone,Meter,Heating:EnergyTransfer:Zone:BREAK_ROOM_44 [J]
Zone,Meter,General:Heating:EnergyTransfer:Zone:BREAK_ROOM_44 [J]
Zone,Meter,Cooling:EnergyTransfer:Zone:BREAK_ROOM_44 [J]
Zone,Meter,General:Cooling:EnergyTransfer:Zone:BREAK_ROOM_44 [J]
Zone,Meter,EnergyTransfer:Zone:MECHANICAL_44 [J]
Zone,Meter,Heating:EnergyTransfer:Zone:MECHANICAL_44 [J]
Zone,Meter,General:Heating:EnergyTransfer:Zone:MECHANICAL_44 [J]
Zone,Meter,Cooling:EnergyTransfer:Zone:MECHANICAL_44 [J]
Zone,Meter,General:Cooling:EnergyTransfer:Zone:MECHANICAL_44 [J]
Zone,Meter,EnergyTransfer:Zone:OFFICE_OPEN_44 [J]
Zone,Meter,Heating:EnergyTransfer:Zone:OFFICE_OPEN_44 [J]
Zone,Meter,General:Heating:EnergyTransfer:Zone:OFFICE_OPEN_44 [J]
Zone,Meter,Cooling:EnergyTransfer:Zone:OFFICE_OPEN_44 [J]
Zone,Meter,General:Cooling:EnergyTransfer:Zone:OFFICE_OPEN_44 [J]
Zone,Meter,EnergyTransfer:Zone:OFFICE_PRIVATE_44 [J]
Zone,Meter,Heating:EnergyTransfer:Zone:OFFICE_PRIVATE_44 [J]
Zone,Meter,General:Heating:EnergyTransfer:Zone:OFFICE_PRIVATE_44 [J]
Zone,Meter,Cooling:EnergyTransfer:Zone:OFFICE_PRIVATE_44 [J]
Zone,Meter,General:Cooling:EnergyTransfer:Zone:OFFICE_PRIVATE_44 [J]
Zone,Meter,EnergyTransfer:Zone:STORAGE_44 [J]
Zone,Meter,Heating:EnergyTransfer:Zone:STORAGE_44 [J]
Zone,Meter,General:Heating:EnergyTransfer:Zone:STORAGE_44 [J]
Zone,Meter,Cooling:EnergyTransfer:Zone:STORAGE_44 [J]
Zone,Meter,General:Cooling:EnergyTransfer:Zone:STORAGE_44 [J]
Zone,Meter,EnergyTransfer:Zone:OFFICE_OPEN_44_2 [J]
Zone,Meter,Heating:EnergyTransfer:Zone:OFFICE_OPEN_44_2 [J]
Zone,Meter,General:Heating:EnergyTransfer:Zone:OFFICE_OPEN_44_2 [J]
Zone,Meter,Cooling:EnergyTransfer:Zone:OFFICE_OPEN_44_2 [J]
Zone,Meter,General:Cooling:EnergyTransfer:Zone:OFFICE_OPEN_44_2 [J]
Zone,Meter,EnergyTransfer:Zone:OFFICE_OPEN_44_3 [J]
Zone,Meter,Heating:EnergyTransfer:Zone:OFFICE_OPEN_44_3 [J]
Zone,Meter,General:Heating:EnergyTransfer:Zone:OFFICE_OPEN_44_3 [J]
Zone,Meter,Cooling:EnergyTransfer:Zone:OFFICE_OPEN_44_3 [J]
Zone,Meter,General:Cooling:EnergyTransfer:Zone:OFFICE_OPEN_44_3 [J]
Zone,Meter,EnergyTransfer:Zone:OFFICE_OPEN_44_4 [J]
Zone,Meter,Heating:EnergyTransfer:Zone:OFFICE_OPEN_44_4 [J]
Zone,Meter,General:Heating:EnergyTransfer:Zone:OFFICE_OPEN_44_4 [J]
Zone,Meter,Cooling:EnergyTransfer:Zone:OFFICE_OPEN_44_4 [J]
Zone,Meter,General:Cooling:EnergyTransfer:Zone:OFFICE_OPEN_44_4 [J]
Zone,Meter,EnergyTransfer:Zone:OFFICE_OPEN_44_5 [J]
Zone,Meter,Heating:EnergyTransfer:Zone:OFFICE_OPEN_44_5 [J]
Zone,Meter,General:Heating:EnergyTransfer:Zone:OFFICE_OPEN_44_5 [J]
Zone,Meter,Cooling:EnergyTransfer:Zone:OFFICE_OPEN_44_5 [J]
Zone,Meter,General:Cooling:EnergyTransfer:Zone:OFFICE_OPEN_44_5 [J]
Zone,Meter,EnergyTransfer:Zone:OFFICE_OPEN_44_6 [J]
Zone,Meter,Heating:EnergyTransfer:Zone:OFFICE_OPEN_44_6 [J]
Zone,Meter,General:Heating:EnergyTransfer:Zone:OFFICE_OPEN_44_6 [J]
Zone,Meter,Cooling:EnergyTransfer:Zone:OFFICE_OPEN_44_6 [J]
Zone,Meter,General:Cooling:EnergyTransfer:Zone:OFFICE_OPEN_44_6 [J]
Zone,Meter,EnergyTransfer:Zone:OFFICE_OPEN_44_7 [J]
Zone,Meter,Heating:EnergyTransfer:Zone:OFFICE_OPEN_44_7 [J]
Zone,Meter,General:Heating:EnergyTransfer:Zone:OFFICE_OPEN_44_7 [J]
Zone,Meter,Cooling:EnergyTransfer:Zone:OFFICE_OPEN_44_7 [J]
Zone,Meter,General:Cooling:EnergyTransfer:Zone:OFFICE_OPEN_44_7 [J]
Zone,Meter,EnergyTransfer:Zone:LOBBY_45 [J]
Zone,Meter,Heating:EnergyTransfer:Zone:LOBBY_45 [J]
Zone,Meter,General:Heating:EnergyTransfer:Zone:LOBBY_45 [J]
Zone,Meter,Cooling:EnergyTransfer:Zone:LOBBY_45 [J]
Zone,Meter,General:Cooling:EnergyTransfer:Zone:LOBBY_45 [J]
Zone,Meter,EnergyTransfer:Zone:CONFERENCE_45 [J]
Zone,Meter,Heating:EnergyTransfer:Zone:CONFERENCE_45 [J]
Zone,Meter,General:Heating:EnergyTransfer:Zone:CONFERENCE_45 [J]
Zone,Meter,Cooling:EnergyTransfer:Zone:CONFERENCE_45 [J]
Zone,Meter,General:Cooling:EnergyTransfer:Zone:CONFERENCE_45 [J]
Zone,Meter,EnergyTransfer:Zone:BREAK_ROOM_45 [J]
Zone,Meter,Heating:EnergyTransfer:Zone:BREAK_ROOM_45 [J]
Zone,Meter,General:Heating:EnergyTransfer:Zone:BREAK_ROOM_45 [J]
Zone,Meter,Cooling:EnergyTransfer:Zone:BREAK_ROOM_45 [J]
Zone,Meter,General:Cooling:EnergyTransfer:Zone:BREAK_ROOM_45 [J]
Zone,Meter,EnergyTransfer:Zone:MECHANICAL_45 [J]
Zone,Meter,Heating:EnergyTransfer:Zone:MECHANICAL_45 [J]
Zone,Meter,General:Heating:EnergyTransfer:Zone:MECHANICAL_45 [J]
Zone,Meter,Cooling:EnergyTransfer:Zone:MECHANICAL_45 [J]
Zone,Meter,General:Cooling:EnergyTransfer:Zone:MECHANICAL_45 [J]
Zone,Meter,EnergyTransfer:Zone:OFFICE_OPEN_45 [J]
Zone,Meter,Heating:EnergyTransfer:Zone:OFFICE_OPEN_45 [J]
Zone,Meter,General:Heating:EnergyTransfer:Zone:OFFICE_OPEN_45 [J]
Zone,Meter,Cooling:EnergyTransfer:Zone:OFFICE_OPEN_45 [J]
Zone,Meter,General:Cooling:EnergyTransfer:Zone:OFFICE_OPEN_45 [J]
Zone,Meter,EnergyTransfer:Zone:OFFICE_PRIVATE_45 [J]
Zone,Meter,Heating:EnergyTransfer:Zone:OFFICE_PRIVATE_45 [J]
Zone,Meter,General:Heating:EnergyTransfer:Zone:OFFICE_PRIVATE_45 [J]
Zone,Meter,Cooling:EnergyTransfer:Zone:OFFICE_PRIVATE_45 [J]
Zone,Meter,General:Cooling:EnergyTransfer:Zone:OFFICE_PRIVATE_45 [J]
Zone,Meter,EnergyTransfer:Zone:STORAGE_45 [J]
Zone,Meter,Heating:EnergyTransfer:Zone:STORAGE_45 [J]
Zone,Meter,General:Heating:EnergyTransfer:Zone:STORAGE_45 [J]
Zone,Meter,Cooling:EnergyTransfer:Zone:STORAGE_45 [J]
Zone,Meter,General:Cooling:EnergyTransfer:Zone:STORAGE_45 [J]
Zone,Meter,EnergyTransfer:Zone:OFFICE_OPEN_45_2 [J]
Zone,Meter,Heating:EnergyTransfer:Zone:OFFICE_OPEN_45_2 [J]
Zone,Meter,General:Heating:EnergyTransfer:Zone:OFFICE_OPEN_45_2 [J]
Zone,Meter,Cooling:EnergyTransfer:Zone:OFFICE_OPEN_45_2 [J]
Zone,Meter,General:Cooling:EnergyTransfer:Zone:OFFICE_OPEN_45_2 [J]
Zone,Meter,EnergyTransfer:Zone:OFFICE_OPEN_45_3 [J]
Zone,Meter,Heating:EnergyTransfer:Zone:OFFICE_OPEN_45_3 [J]
Zone,Meter,General:Heating:EnergyTransfer:Zone:OFFICE_OPEN_45_3 [J]
Zone,Meter,Cooling:EnergyTransfer:Zone:OFFICE_OPEN_45_3 [J]
Zone,Meter,General:Cooling:EnergyTransfer:Zone:OFFICE_OPEN_45_3 [J]
Zone,Meter,EnergyTransfer:Zone:OFFICE_OPEN_45_4 [J]
Zone,Meter,Heating:EnergyTransfer:Zone:OFFICE_OPEN_45_4 [J]
Zone,Meter,General:Heating:EnergyTransfer:Zone:OFFICE_OPEN_45_4 [J]
Zone,Meter,Cooling:EnergyTransfer:Zone:OFFICE_OPEN_45_4 [J]
Zone,Meter,General:Cooling:EnergyTransfer:Zone:OFFICE_OPEN_45_4 [J]
Zone,Meter,EnergyTransfer:Zone:OFFICE_OPEN_45_5 [J]
Zone,Meter,Heating:EnergyTransfer:Zone:OFFICE_OPEN_45_5 [J]
Zone,Meter,General:Heating:EnergyTransfer:Zone:OFFICE_OPEN_45_5 [J]
Zone,Meter,Cooling:EnergyTransfer:Zone:OFFICE_OPEN_45_5 [J]
Zone,Meter,General:Cooling:EnergyTransfer:Zone:OFFICE_OPEN_45_5 [J]
Zone,Meter,EnergyTransfer:Zone:LOBBY_46 [J]
Zone,Meter,Heating:EnergyTransfer:Zone:LOBBY_46 [J]
Zone,Meter,General:Heating:EnergyTransfer:Zone:LOBBY_46 [J]
Zone,Meter,Cooling:EnergyTransfer:Zone:LOBBY_46 [J]
Zone,Meter,General:Cooling:EnergyTransfer:Zone:LOBBY_46 [J]
Zone,Meter,EnergyTransfer:Zone:CONFERENCE_46 [J]
Zone,Meter,Heating:EnergyTransfer:Zone:CONFERENCE_46 [J]
Zone,Meter,General:Heating:EnergyTransfer:Zone:CONFERENCE_46 [J]
Zone,Meter,Cooling:EnergyTransfer:Zone:CONFERENCE_46 [J]
Zone,Meter,General:Cooling:EnergyTransfer:Zone:CONFERENCE_46 [J]
Zone,Meter,EnergyTransfer:Zone:BREAK_ROOM_46 [J]
Zone,Meter,Heating:EnergyTransfer:Zone:BREAK_ROOM_46 [J]
Zone,Meter,General:Heating:EnergyTransfer:Zone:BREAK_ROOM_46 [J]
Zone,Meter,Cooling:EnergyTransfer:Zone:BREAK_ROOM_46 [J]
Zone,Meter,General:Cooling:EnergyTransfer:Zone:BREAK_ROOM_46 [J]
Zone,Meter,EnergyTransfer:Zone:MECHANICAL_46 [J]
Zone,Meter,Heating:EnergyTransfer:Zone:MECHANICAL_46 [J]
Zone,Meter,General:Heating:EnergyTransfer:Zone:MECHANICAL_46 [J]
Zone,Meter,Cooling:EnergyTransfer:Zone:MECHANICAL_46 [J]
Zone,Meter,General:Cooling:EnergyTransfer:Zone:MECHANICAL_46 [J]
Zone,Meter,EnergyTransfer:Zone:OFFICE_OPEN_46 [J]
Zone,Meter,Heating:EnergyTransfer:Zone:OFFICE_OPEN_46 [J]
Zone,Meter,General:Heating:EnergyTransfer:Zone:OFFICE_OPEN_46 [J]
Zone,Meter,Cooling:EnergyTransfer:Zone:OFFICE_OPEN_46 [J]
Zone,Meter,General:Cooling:EnergyTransfer:Zone:OFFICE_OPEN_46 [J]
Zone,Meter,EnergyTransfer:Zone:OFFICE_PRIVATE_46 [J]
Zone,Meter,Heating:EnergyTransfer:Zone:OFFICE_PRIVATE_46 [J]
Zone,Meter,General:Heating:EnergyTransfer:Zone:OFFICE_PRIVATE_46 [J]
Zone,Meter,Cooling:EnergyTransfer:Zone:OFFICE_PRIVATE_46 [J]
Zone,Meter,General:Cooling:EnergyTransfer:Zone:OFFICE_PRIVATE_46 [J]
Zone,Meter,EnergyTransfer:Zone:STORAGE_46 [J]
Zone,Meter,Heating:EnergyTransfer:Zone:STORAGE_46 [J]
Zone,Meter,General:Heating:EnergyTransfer:Zone:STORAGE_46 [J]
Zone,Meter,Cooling:EnergyTransfer:Zone:STORAGE_46 [J]
Zone,Meter,General:Cooling:EnergyTransfer:Zone:STORAGE_46 [J]
Zone,Meter,EnergyTransfer:Zone:OFFICE_OPEN_46_2 [J]
Zone,Meter,Heating:EnergyTransfer:Zone:OFFICE_OPEN_46_2 [J]
Zone,Meter,General:Heating:EnergyTransfer:Zone:OFFICE_OPEN_46_2 [J]
Zone,Meter,Cooling:EnergyTransfer:Zone:OFFICE_OPEN_46_2 [J]
Zone,Meter,General:Cooling:EnergyTransfer:Zone:OFFICE_OPEN_46_2 [J]
Zone,Meter,EnergyTransfer:Zone:OFFICE_OPEN_46_3 [J]
Zone,Meter,Heating:EnergyTransfer:Zone:OFFICE_OPEN_46_3 [J]
Zone,Meter,General:Heating:EnergyTransfer:Zone:OFFICE_OPEN_46_3 [J]
Zone,Meter,Cooling:EnergyTransfer:Zone:OFFICE_OPEN_46_3 [J]
Zone,Meter,General:Cooling:EnergyTransfer:Zone:OFFICE_OPEN_46_3 [J]
Zone,Meter,EnergyTransfer:Zone:OFFICE_OPEN_46_4 [J]
Zone,Meter,Heating:EnergyTransfer:Zone:OFFICE_OPEN_46_4 [J]
Zone,Meter,General:Heating:EnergyTransfer:Zone:OFFICE_OPEN_46_4 [J]
Zone,Meter,Cooling:EnergyTransfer:Zone:OFFICE_OPEN_46_4 [J]
Zone,Meter,General:Cooling:EnergyTransfer:Zone:OFFICE_OPEN_46_4 [J]
Zone,Meter,EnergyTransfer:Zone:OFFICE_OPEN_46_5 [J]
Zone,Meter,Heating:EnergyTransfer:Zone:OFFICE_OPEN_46_5 [J]
Zone,Meter,General:Heating:EnergyTransfer:Zone:OFFICE_OPEN_46_5 [J]
Zone,Meter,Cooling:EnergyTransfer:Zone:OFFICE_OPEN_46_5 [J]
Zone,Meter,General:Cooling:EnergyTransfer:Zone:OFFICE_OPEN_46_5 [J]
Zone,Meter,EnergyTransfer:Zone:OFFICE_OPEN_46_6 [J]
Zone,Meter,Heating:EnergyTransfer:Zone:OFFICE_OPEN_46_6 [J]
Zone,Meter,General:Heating:EnergyTransfer:Zone:OFFICE_OPEN_46_6 [J]
Zone,Meter,Cooling:EnergyTransfer:Zone:OFFICE_OPEN_46_6 [J]
Zone,Meter,General:Cooling:EnergyTransfer:Zone:OFFICE_OPEN_46_6 [J]
Zone,Meter,EnergyTransfer:Zone:LOBBY_47 [J]
Zone,Meter,Heating:EnergyTransfer:Zone:LOBBY_47 [J]
Zone,Meter,General:Heating:EnergyTransfer:Zone:LOBBY_47 [J]
Zone,Meter,Cooling:EnergyTransfer:Zone:LOBBY_47 [J]
Zone,Meter,General:Cooling:EnergyTransfer:Zone:LOBBY_47 [J]
Zone,Meter,EnergyTransfer:Zone:CONFERENCE_47 [J]
Zone,Meter,Heating:EnergyTransfer:Zone:CONFERENCE_47 [J]
Zone,Meter,General:Heating:EnergyTransfer:Zone:CONFERENCE_47 [J]
Zone,Meter,Cooling:EnergyTransfer:Zone:CONFERENCE_47 [J]
Zone,Meter,General:Cooling:EnergyTransfer:Zone:CONFERENCE_47 [J]
Zone,Meter,EnergyTransfer:Zone:BREAK_ROOM_47 [J]
Zone,Meter,Heating:EnergyTransfer:Zone:BREAK_ROOM_47 [J]
Zone,Meter,General:Heating:EnergyTransfer:Zone:BREAK_ROOM_47 [J]
Zone,Meter,Cooling:EnergyTransfer:Zone:BREAK_ROOM_47 [J]
Zone,Meter,General:Cooling:EnergyTransfer:Zone:BREAK_ROOM_47 [J]
Zone,Meter,EnergyTransfer:Zone:MECHANICAL_47 [J]
Zone,Meter,Heating:EnergyTransfer:Zone:MECHANICAL_47 [J]
Zone,Meter,General:Heating:EnergyTransfer:Zone:MECHANICAL_47 [J]
Zone,Meter,Cooling:EnergyTransfer:Zone:MECHANICAL_47 [J]
Zone,Meter,General:Cooling:EnergyTransfer:Zone:MECHANICAL_47 [J]
Zone,Meter,EnergyTransfer:Zone:OFFICE_OPEN_47 [J]
Zone,Meter,Heating:EnergyTransfer:Zone:OFFICE_OPEN_47 [J]
Zone,Meter,General:Heating:EnergyTransfer:Zone:OFFICE_OPEN_47 [J]
Zone,Meter,Cooling:EnergyTransfer:Zone:OFFICE_OPEN_47 [J]
Zone,Meter,General:Cooling:EnergyTransfer:Zone:OFFICE_OPEN_47 [J]
Zone,Meter,EnergyTransfer:Zone:OFFICE_PRIVATE_47 [J]
Zone,Meter,Heating:EnergyTransfer:Zone:OFFICE_PRIVATE_47 [J]
Zone,Meter,General:Heating:EnergyTransfer:Zone:OFFICE_PRIVATE_47 [J]
Zone,Meter,Cooling:EnergyTransfer:Zone:OFFICE_PRIVATE_47 [J]
Zone,Meter,General:Cooling:EnergyTransfer:Zone:OFFICE_PRIVATE_47 [J]
Zone,Meter,EnergyTransfer:Zone:STORAGE_47 [J]
Zone,Meter,Heating:EnergyTransfer:Zone:STORAGE_47 [J]
Zone,Meter,General:Heating:EnergyTransfer:Zone:STORAGE_47 [J]
Zone,Meter,Cooling:EnergyTransfer:Zone:STORAGE_47 [J]
Zone,Meter,General:Cooling:EnergyTransfer:Zone:STORAGE_47 [J]
Zone,Meter,EnergyTransfer:Zone:OFFICE_OPEN_47_2 [J]
Zone,Meter,Heating:EnergyTransfer:Zone:OFFICE_OPEN_47_2 [J]
Zone,Meter,General:Heating:EnergyTransfer:Zone:OFFICE_OPEN_47_2 [J]
Zone,Meter,Cooling:EnergyTransfer:Zone:OFFICE_OPEN_47_2 [J]
Zone,Meter,General:Cooling:EnergyTransfer:Zone:OFFICE_OPEN_47_2 [J]
Zone,Meter,EnergyTransfer:Zone:OFFICE_OPEN_47_3 [J]
Zone,Meter,Heating:EnergyTransfer:Zone:OFFICE_OPEN_47_3 [J]
Zone,Meter,General:Heating:EnergyTransfer:Zone:OFFICE_OPEN_47_3 [J]
Zone,Meter,Cooling:EnergyTransfer:Zone:OFFICE_OPEN_47_3 [J]
Zone,Meter,General:Cooling:EnergyTransfer:Zone:OFFICE_OPEN_47_3 [J]
Zone,Meter,EnergyTransfer:Zone:OFFICE_OPEN_47_4 [J]
Zone,Meter,Heating:EnergyTransfer:Zone:OFFICE_OPEN_47_4 [J]
Zone,Meter,General:Heating:EnergyTransfer:Zone:OFFICE_OPEN_47_4 [J]
Zone,Meter,Cooling:EnergyTransfer:Zone:OFFICE_OPEN_47_4 [J]
Zone,Meter,General:Cooling:EnergyTransfer:Zone:OFFICE_OPEN_47_4 [J]
Zone,Meter,EnergyTransfer:Zone:OFFICE_OPEN_47_5 [J]
Zone,Meter,Heating:EnergyTransfer:Zone:OFFICE_OPEN_47_5 [J]
Zone,Meter,General:Heating:EnergyTransfer:Zone:OFFICE_OPEN_47_5 [J]
Zone,Meter,Cooling:EnergyTransfer:Zone:OFFICE_OPEN_47_5 [J]
Zone,Meter,General:Cooling:EnergyTransfer:Zone:OFFICE_OPEN_47_5 [J]
Zone,Meter,EnergyTransfer:Zone:OFFICE_OPEN_47_6 [J]
Zone,Meter,Heating:EnergyTransfer:Zone:OFFICE_OPEN_47_6 [J]
Zone,Meter,General:Heating:EnergyTransfer:Zone:OFFICE_OPEN_47_6 [J]
Zone,Meter,Cooling:EnergyTransfer:Zone:OFFICE_OPEN_47_6 [J]
Zone,Meter,General:Cooling:EnergyTransfer:Zone:OFFICE_OPEN_47_6 [J]
Zone,Meter,EnergyTransfer:Zone:OFFICE_OPEN_47_7 [J]
Zone,Meter,Heating:EnergyTransfer:Zone:OFFICE_OPEN_47_7 [J]
Zone,Meter,General:Heating:EnergyTransfer:Zone:OFFICE_OPEN_47_7 [J]
Zone,Meter,Cooling:EnergyTransfer:Zone:OFFICE_OPEN_47_7 [J]
Zone,Meter,General:Cooling:EnergyTransfer:Zone:OFFICE_OPEN_47_7 [J]
Zone,Meter,EnergyTransfer:HVAC [J]
Zone,Meter,HeatingCoils:EnergyTransfer [J]
Zone,Meter,Electricity:HVAC [J]
Zone,Meter,Heating:Electricity [J]
Zone,Meter,General:Heating:Electricity [J]
Zone,Meter,Fans:Electricity [J]
Zone,Meter,General:Fans:Electricity [J]
Zone,Meter,CoolingCoils:EnergyTransfer [J]
Zone,Meter,Cooling:Electricity [J]
Zone,Meter,General:Cooling:Electricity [J]
Zone,Meter,ElectricityPurchased:Facility [J]
Zone,Meter,ElectricityPurchased:Plant [J]
Zone,Meter,Cogeneration:ElectricityPurchased [J]
Zone,Meter,General:Cogeneration:ElectricityPurchased [J]
Zone,Meter,ElectricitySurplusSold:Facility [J]
Zone,Meter,ElectricitySurplusSold:Plant [J]
Zone,Meter,Cogeneration:ElectricitySurplusSold [J]
Zone,Meter,General:Cogeneration:ElectricitySurplusSold [J]
Zone,Meter,ElectricityNet:Facility [J]
Zone,Meter,ElectricityNet:Plant [J]
Zone,Meter,Cogeneration:ElectricityNet [J]
Zone,Meter,General:Cogeneration:ElectricityNet [J]
Zone,Meter,Carbon Equivalent:Facility [kg]
Zone,Meter,CarbonEquivalentEmissions:Carbon Equivalent [kg]
