Program Version,EnergyPlus, Version 24.2.0-94a887817b, YMD=2025.11.03 21:20,
   ** Severe  ** Line: 144 Index: 34 - "Insulation_Fiberglass_R20" is not a valid Object Type.
   ** Severe  ** Line: 145 Index: 25 - "Gypsum_Board_1_2" is not a valid Object Type.
   ** Severe  ** Line: 150 Index: 28 - "Roof_Insulation_R20" is not a valid Object Type.
   ** Severe  ** Line: 151 Index: 24 - "Concrete_Medium" is not a valid Object Type.
   ** Severe  ** Line: 156 Index: 24 - "Steel_Stud_25ga" is not a valid Object Type.
   ** Severe  ** Line: 157 Index: 34 - "Insulation_Fiberglass_R19" is not a valid Object Type.
   ** Severe  ** Line: 158 Index: 25 - "Gypsum_Board_1_2" is not a valid Object Type.
   ** Severe  ** Line: 513 Index: 10 - "-11.2255" is not a valid Object Type.
   ** Severe  ** Line: 514 Index: 10 - "-11.2255" is not a valid Object Type.
   ** Severe  ** Line: 515 Index: 10 - "-19.9390" is not a valid Object Type.
   ** Severe  ** Line: 532 Index: 10 - "-11.2255" is not a valid Object Type.
   ** Severe  ** Line: 533 Index: 10 - "-11.2255" is not a valid Object Type.
   ** Severe  ** Line: 534 Index: 10 - "-19.9390" is not a valid Object Type.
   ** Severe  ** Line: 551 Index: 10 - "-11.2255" is not a valid Object Type.
   ** Severe  ** Line: 552 Index: 10 - "-11.2255" is not a valid Object Type.
   ** Severe  ** Line: 553 Index: 10 - "-19.9390" is not a valid Object Type.
   ** Severe  ** Line: 570 Index: 10 - "-11.2255" is not a valid Object Type.
   ** Severe  ** Line: 571 Index: 10 - "-11.2255" is not a valid Object Type.
   ** Severe  ** Line: 572 Index: 10 - "-11.2255" is not a valid Object Type.
   ** Severe  ** Line: 589 Index: 10 - "-19.9390" is not a valid Object Type.
   ** Severe  ** Line: 590 Index: 10 - "-19.9390" is not a valid Object Type.
   ** Severe  ** Line: 591 Index: 10 - "-11.2255" is not a valid Object Type.
   ** Severe  ** Line: 608 Index: 10 - "-19.9390" is not a valid Object Type.
   ** Severe  ** Line: 609 Index: 10 - "-19.9390" is not a valid Object Type.
   ** Severe  ** Line: 610 Index: 10 - "-19.9390" is not a valid Object Type.
   ** Severe  ** Line: 627 Index: 9 - "20.2568" is not a valid Object Type.
   ** Severe  ** Line: 628 Index: 9 - "20.2568" is not a valid Object Type.
   ** Severe  ** Line: 629 Index: 9 - "15.5069" is not a valid Object Type.
   ** Severe  ** Line: 646 Index: 9 - "20.2568" is not a valid Object Type.
   ** Severe  ** Line: 647 Index: 9 - "20.2568" is not a valid Object Type.
   ** Severe  ** Line: 648 Index: 9 - "15.5069" is not a valid Object Type.
   ** Severe  ** Line: 665 Index: 9 - "20.2568" is not a valid Object Type.
   ** Severe  ** Line: 666 Index: 9 - "20.2568" is not a valid Object Type.
   ** Severe  ** Line: 667 Index: 9 - "15.5069" is not a valid Object Type.
   ** Severe  ** Line: 684 Index: 9 - "20.2568" is not a valid Object Type.
   ** Severe  ** Line: 685 Index: 9 - "20.2568" is not a valid Object Type.
   ** Severe  ** Line: 686 Index: 9 - "20.2568" is not a valid Object Type.
   ** Severe  ** Line: 703 Index: 9 - "15.5069" is not a valid Object Type.
   ** Severe  ** Line: 704 Index: 9 - "15.5069" is not a valid Object Type.
   ** Severe  ** Line: 705 Index: 9 - "20.2568" is not a valid Object Type.
   ** Severe  ** Line: 722 Index: 9 - "15.5069" is not a valid Object Type.
   ** Severe  ** Line: 723 Index: 9 - "15.5069" is not a valid Object Type.
   ** Severe  ** Line: 724 Index: 9 - "15.5069" is not a valid Object Type.
   ** Severe  ** Line: 741 Index: 9 - "-8.1610" is not a valid Object Type.
   ** Severe  ** Line: 742 Index: 9 - "-8.1610" is not a valid Object Type.
   ** Severe  ** Line: 743 Index: 10 - "-12.4711" is not a valid Object Type.
   ** Severe  ** Line: 760 Index: 9 - "-8.1610" is not a valid Object Type.
   ** Severe  ** Line: 761 Index: 9 - "-8.1610" is not a valid Object Type.
   ** Severe  ** Line: 762 Index: 10 - "-12.4711" is not a valid Object Type.
   ** Severe  ** Line: 779 Index: 9 - "-8.1610" is not a valid Object Type.
   ** Severe  ** Line: 780 Index: 9 - "-8.1610" is not a valid Object Type.
   ** Severe  ** Line: 781 Index: 10 - "-12.4711" is not a valid Object Type.
   ** Severe  ** Line: 798 Index: 9 - "-8.1610" is not a valid Object Type.
   ** Severe  ** Line: 799 Index: 9 - "-8.1610" is not a valid Object Type.
   ** Severe  ** Line: 800 Index: 9 - "-8.1610" is not a valid Object Type.
   ** Severe  ** Line: 817 Index: 10 - "-12.4711" is not a valid Object Type.
   ** Severe  ** Line: 818 Index: 10 - "-12.4711" is not a valid Object Type.
   ** Severe  ** Line: 819 Index: 9 - "-8.1610" is not a valid Object Type.
   ** Severe  ** Line: 836 Index: 10 - "-12.4711" is not a valid Object Type.
   ** Severe  ** Line: 837 Index: 10 - "-12.4711" is not a valid Object Type.
   ** Severe  ** Line: 838 Index: 10 - "-12.4711" is not a valid Object Type.
   ** Severe  ** Line: 855 Index: 8 - "9.4303" is not a valid Object Type.
   ** Severe  ** Line: 856 Index: 8 - "9.4303" is not a valid Object Type.
   ** Severe  ** Line: 857 Index: 9 - "-6.1145" is not a valid Object Type.
   ** Severe  ** Line: 874 Index: 8 - "9.4303" is not a valid Object Type.
   ** Severe  ** Line: 875 Index: 8 - "9.4303" is not a valid Object Type.
   ** Severe  ** Line: 876 Index: 9 - "-6.1145" is not a valid Object Type.
   ** Severe  ** Line: 893 Index: 8 - "9.4303" is not a valid Object Type.
   ** Severe  ** Line: 894 Index: 8 - "9.4303" is not a valid Object Type.
   ** Severe  ** Line: 895 Index: 9 - "-6.1145" is not a valid Object Type.
   ** Severe  ** Line: 912 Index: 8 - "9.4303" is not a valid Object Type.
   ** Severe  ** Line: 913 Index: 8 - "9.4303" is not a valid Object Type.
   ** Severe  ** Line: 914 Index: 8 - "9.4303" is not a valid Object Type.
   ** Severe  ** Line: 931 Index: 9 - "-6.1145" is not a valid Object Type.
   ** Severe  ** Line: 932 Index: 9 - "-6.1145" is not a valid Object Type.
   ** Severe  ** Line: 933 Index: 8 - "9.4303" is not a valid Object Type.
   ** Severe  ** Line: 950 Index: 9 - "-6.1145" is not a valid Object Type.
   ** Severe  ** Line: 951 Index: 9 - "-6.1145" is not a valid Object Type.
   ** Severe  ** Line: 952 Index: 9 - "-6.1145" is not a valid Object Type.
   ** Severe  ** Line: 969 Index: 10 - "-15.2589" is not a valid Object Type.
   ** Severe  ** Line: 970 Index: 10 - "-15.2589" is not a valid Object Type.
   ** Severe  ** Line: 971 Index: 10 - "-19.7053" is not a valid Object Type.
   ** Severe  ** Line: 988 Index: 10 - "-15.2589" is not a valid Object Type.
   ** Severe  ** Line: 989 Index: 10 - "-15.2589" is not a valid Object Type.
   ** Severe  ** Line: 990 Index: 10 - "-19.7053" is not a valid Object Type.
   ** Severe  ** Line: 1007 Index: 10 - "-15.2589" is not a valid Object Type.
   ** Severe  ** Line: 1008 Index: 10 - "-15.2589" is not a valid Object Type.
   ** Severe  ** Line: 1009 Index: 10 - "-19.7053" is not a valid Object Type.
   ** Severe  ** Line: 1026 Index: 10 - "-15.2589" is not a valid Object Type.
   ** Severe  ** Line: 1027 Index: 10 - "-15.2589" is not a valid Object Type.
   ** Severe  ** Line: 1028 Index: 10 - "-15.2589" is not a valid Object Type.
   ** Severe  ** Line: 1045 Index: 10 - "-19.7053" is not a valid Object Type.
   ** Severe  ** Line: 1046 Index: 10 - "-19.7053" is not a valid Object Type.
   ** Severe  ** Line: 1047 Index: 10 - "-15.2589" is not a valid Object Type.
   ** Severe  ** Line: 1064 Index: 10 - "-19.7053" is not a valid Object Type.
   ** Severe  ** Line: 1065 Index: 10 - "-19.7053" is not a valid Object Type.
   ** Severe  ** Line: 1066 Index: 10 - "-19.7053" is not a valid Object Type.
   ** Severe  ** Line: 1083 Index: 9 - "-9.9876" is not a valid Object Type.
   ** Severe  ** Line: 1084 Index: 9 - "-9.9876" is not a valid Object Type.
   ** Severe  ** Line: 1085 Index: 10 - "-15.9968" is not a valid Object Type.
   ** Severe  ** Line: 1102 Index: 9 - "-9.9876" is not a valid Object Type.
   ** Severe  ** Line: 1103 Index: 9 - "-9.9876" is not a valid Object Type.
   ** Severe  ** Line: 1104 Index: 10 - "-15.9968" is not a valid Object Type.
   ** Severe  ** Line: 1121 Index: 9 - "-9.9876" is not a valid Object Type.
   ** Severe  ** Line: 1122 Index: 9 - "-9.9876" is not a valid Object Type.
   ** Severe  ** Line: 1123 Index: 10 - "-15.9968" is not a valid Object Type.
   ** Severe  ** Line: 1140 Index: 9 - "-9.9876" is not a valid Object Type.
   ** Severe  ** Line: 1141 Index: 9 - "-9.9876" is not a valid Object Type.
   ** Severe  ** Line: 1142 Index: 9 - "-9.9876" is not a valid Object Type.
   ** Severe  ** Line: 1159 Index: 10 - "-15.9968" is not a valid Object Type.
   ** Severe  ** Line: 1160 Index: 10 - "-15.9968" is not a valid Object Type.
   ** Severe  ** Line: 1161 Index: 9 - "-9.9876" is not a valid Object Type.
   ** Severe  ** Line: 1178 Index: 10 - "-15.9968" is not a valid Object Type.
   ** Severe  ** Line: 1179 Index: 10 - "-15.9968" is not a valid Object Type.
   ** Severe  ** Line: 1180 Index: 10 - "-15.9968" is not a valid Object Type.
   ** Severe  ** Line: 1197 Index: 9 - "-1.7402" is not a valid Object Type.
   ** Severe  ** Line: 1198 Index: 9 - "-1.7402" is not a valid Object Type.
   ** Severe  ** Line: 1199 Index: 10 - "-12.7345" is not a valid Object Type.
   ** Severe  ** Line: 1216 Index: 9 - "-1.7402" is not a valid Object Type.
   ** Severe  ** Line: 1217 Index: 9 - "-1.7402" is not a valid Object Type.
   ** Severe  ** Line: 1218 Index: 10 - "-12.7345" is not a valid Object Type.
   ** Severe  ** Line: 1235 Index: 9 - "-1.7402" is not a valid Object Type.
   ** Severe  ** Line: 1236 Index: 9 - "-1.7402" is not a valid Object Type.
   ** Severe  ** Line: 1237 Index: 10 - "-12.7345" is not a valid Object Type.
   ** Severe  ** Line: 1254 Index: 9 - "-1.7402" is not a valid Object Type.
   ** Severe  ** Line: 1255 Index: 9 - "-1.7402" is not a valid Object Type.
   ** Severe  ** Line: 1256 Index: 9 - "-1.7402" is not a valid Object Type.
   ** Severe  ** Line: 1273 Index: 10 - "-12.7345" is not a valid Object Type.
   ** Severe  ** Line: 1274 Index: 10 - "-12.7345" is not a valid Object Type.
   ** Severe  ** Line: 1275 Index: 9 - "-1.7402" is not a valid Object Type.
   ** Severe  ** Line: 1292 Index: 10 - "-12.7345" is not a valid Object Type.
   ** Severe  ** Line: 1293 Index: 10 - "-12.7345" is not a valid Object Type.
   ** Severe  ** Line: 1294 Index: 10 - "-12.7345" is not a valid Object Type.
   ** Severe  ** Line: 1311 Index: 10 - "-10.9038" is not a valid Object Type.
   ** Severe  ** Line: 1312 Index: 10 - "-10.9038" is not a valid Object Type.
   ** Severe  ** Line: 1313 Index: 10 - "-19.7738" is not a valid Object Type.
   ** Severe  ** Line: 1330 Index: 10 - "-10.9038" is not a valid Object Type.
   ** Severe  ** Line: 1331 Index: 10 - "-10.9038" is not a valid Object Type.
   ** Severe  ** Line: 1332 Index: 10 - "-19.7738" is not a valid Object Type.
   ** Severe  ** Line: 1349 Index: 10 - "-10.9038" is not a valid Object Type.
   ** Severe  ** Line: 1350 Index: 10 - "-10.9038" is not a valid Object Type.
   ** Severe  ** Line: 1351 Index: 10 - "-19.7738" is not a valid Object Type.
   ** Severe  ** Line: 1368 Index: 10 - "-10.9038" is not a valid Object Type.
   ** Severe  ** Line: 1369 Index: 10 - "-10.9038" is not a valid Object Type.
   ** Severe  ** Line: 1370 Index: 10 - "-10.9038" is not a valid Object Type.
   ** Severe  ** Line: 1387 Index: 10 - "-19.7738" is not a valid Object Type.
   ** Severe  ** Line: 1388 Index: 10 - "-19.7738" is not a valid Object Type.
   ** Severe  ** Line: 1389 Index: 10 - "-10.9038" is not a valid Object Type.
   ** Severe  ** Line: 1406 Index: 10 - "-19.7738" is not a valid Object Type.
   ** Severe  ** Line: 1407 Index: 10 - "-19.7738" is not a valid Object Type.
   ** Severe  ** Line: 1408 Index: 10 - "-19.7738" is not a valid Object Type.
   ** Severe  ** Line: 1425 Index: 8 - "0.5862" is not a valid Object Type.
   ** Severe  ** Line: 1426 Index: 8 - "0.5862" is not a valid Object Type.
   ** Severe  ** Line: 1427 Index: 9 - "-5.4152" is not a valid Object Type.
   ** Severe  ** Line: 1444 Index: 8 - "0.5862" is not a valid Object Type.
   ** Severe  ** Line: 1445 Index: 8 - "0.5862" is not a valid Object Type.
   ** Severe  ** Line: 1446 Index: 9 - "-5.4152" is not a valid Object Type.
   ** Severe  ** Line: 1463 Index: 8 - "0.5862" is not a valid Object Type.
   ** Severe  ** Line: 1464 Index: 8 - "0.5862" is not a valid Object Type.
   ** Severe  ** Line: 1465 Index: 9 - "-5.4152" is not a valid Object Type.
   ** Severe  ** Line: 1482 Index: 8 - "0.5862" is not a valid Object Type.
   ** Severe  ** Line: 1483 Index: 8 - "0.5862" is not a valid Object Type.
   ** Severe  ** Line: 1484 Index: 8 - "0.5862" is not a valid Object Type.
   ** Severe  ** Line: 1501 Index: 9 - "-5.4152" is not a valid Object Type.
   ** Severe  ** Line: 1502 Index: 9 - "-5.4152" is not a valid Object Type.
   ** Severe  ** Line: 1503 Index: 8 - "0.5862" is not a valid Object Type.
   ** Severe  ** Line: 1520 Index: 9 - "-5.4152" is not a valid Object Type.
   ** Severe  ** Line: 1521 Index: 9 - "-5.4152" is not a valid Object Type.
   ** Severe  ** Line: 1522 Index: 9 - "-5.4152" is not a valid Object Type.
   ** Severe  ** Line: 1539 Index: 8 - "2.0102" is not a valid Object Type.
   ** Severe  ** Line: 1540 Index: 8 - "2.0102" is not a valid Object Type.
   ** Severe  ** Line: 1541 Index: 9 - "-6.0180" is not a valid Object Type.
   ** Severe  ** Line: 1558 Index: 8 - "2.0102" is not a valid Object Type.
   ** Severe  ** Line: 1559 Index: 8 - "2.0102" is not a valid Object Type.
   ** Severe  ** Line: 1560 Index: 9 - "-6.0180" is not a valid Object Type.
   ** Severe  ** Line: 1577 Index: 8 - "2.0102" is not a valid Object Type.
   ** Severe  ** Line: 1578 Index: 8 - "2.0102" is not a valid Object Type.
   ** Severe  ** Line: 1579 Index: 9 - "-6.0180" is not a valid Object Type.
   ** Severe  ** Line: 1596 Index: 8 - "2.0102" is not a valid Object Type.
   ** Severe  ** Line: 1597 Index: 8 - "2.0102" is not a valid Object Type.
   ** Severe  ** Line: 1598 Index: 8 - "2.0102" is not a valid Object Type.
   ** Severe  ** Line: 1615 Index: 9 - "-6.0180" is not a valid Object Type.
   ** Severe  ** Line: 1616 Index: 9 - "-6.0180" is not a valid Object Type.
   ** Severe  ** Line: 1617 Index: 8 - "2.0102" is not a valid Object Type.
   ** Severe  ** Line: 1634 Index: 9 - "-6.0180" is not a valid Object Type.
   ** Severe  ** Line: 1635 Index: 9 - "-6.0180" is not a valid Object Type.
   ** Severe  ** Line: 1636 Index: 9 - "-6.0180" is not a valid Object Type.
   ** Severe  ** Line: 1653 Index: 8 - "9.2862" is not a valid Object Type.
   ** Severe  ** Line: 1654 Index: 8 - "9.2862" is not a valid Object Type.
   ** Severe  ** Line: 1655 Index: 9 - "-0.5881" is not a valid Object Type.
   ** Severe  ** Line: 1672 Index: 8 - "9.2862" is not a valid Object Type.
   ** Severe  ** Line: 1673 Index: 8 - "9.2862" is not a valid Object Type.
   ** Severe  ** Line: 1674 Index: 9 - "-0.5881" is not a valid Object Type.
   ** Severe  ** Line: 1691 Index: 8 - "9.2862" is not a valid Object Type.
   ** Severe  ** Line: 1692 Index: 8 - "9.2862" is not a valid Object Type.
   ** Severe  ** Line: 1693 Index: 9 - "-0.5881" is not a valid Object Type.
   ** Severe  ** Line: 1710 Index: 8 - "9.2862" is not a valid Object Type.
   ** Severe  ** Line: 1711 Index: 8 - "9.2862" is not a valid Object Type.
   ** Severe  ** Line: 1712 Index: 8 - "9.2862" is not a valid Object Type.
   ** Severe  ** Line: 1729 Index: 9 - "-0.5881" is not a valid Object Type.
   ** Severe  ** Line: 1730 Index: 9 - "-0.5881" is not a valid Object Type.
   ** Severe  ** Line: 1731 Index: 8 - "9.2862" is not a valid Object Type.
   ** Severe  ** Line: 1748 Index: 9 - "-0.5881" is not a valid Object Type.
   ** Severe  ** Line: 1749 Index: 9 - "-0.5881" is not a valid Object Type.
   ** Severe  ** Line: 1750 Index: 9 - "-0.5881" is not a valid Object Type.
   ** Severe  ** Line: 1767 Index: 9 - "21.3439" is not a valid Object Type.
   ** Severe  ** Line: 1768 Index: 9 - "21.3439" is not a valid Object Type.
   ** Severe  ** Line: 1769 Index: 9 - "17.3843" is not a valid Object Type.
   ** Severe  ** Line: 1786 Index: 9 - "21.3439" is not a valid Object Type.
   ** Severe  ** Line: 1787 Index: 9 - "21.3439" is not a valid Object Type.
   ** Severe  ** Line: 1788 Index: 9 - "17.3843" is not a valid Object Type.
   ** Severe  ** Line: 1805 Index: 9 - "21.3439" is not a valid Object Type.
   ** Severe  ** Line: 1806 Index: 9 - "21.3439" is not a valid Object Type.
   ** Severe  ** Line: 1807 Index: 9 - "17.3843" is not a valid Object Type.
   ** Severe  ** Line: 1824 Index: 9 - "21.3439" is not a valid Object Type.
   ** Severe  ** Line: 1825 Index: 9 - "21.3439" is not a valid Object Type.
   ** Severe  ** Line: 1826 Index: 9 - "21.3439" is not a valid Object Type.
   ** Severe  ** Line: 1843 Index: 9 - "17.3843" is not a valid Object Type.
   ** Severe  ** Line: 1844 Index: 9 - "17.3843" is not a valid Object Type.
   ** Severe  ** Line: 1845 Index: 9 - "21.3439" is not a valid Object Type.
   ** Severe  ** Line: 1862 Index: 9 - "17.3843" is not a valid Object Type.
   ** Severe  ** Line: 1863 Index: 9 - "17.3843" is not a valid Object Type.
   ** Severe  ** Line: 1864 Index: 9 - "17.3843" is not a valid Object Type.
   ** Severe  ** Line: 1881 Index: 8 - "5.5548" is not a valid Object Type.
   ** Severe  ** Line: 1882 Index: 8 - "5.5548" is not a valid Object Type.
   ** Severe  ** Line: 1883 Index: 8 - "0.3099" is not a valid Object Type.
   ** Severe  ** Line: 1900 Index: 8 - "5.5548" is not a valid Object Type.
   ** Severe  ** Line: 1901 Index: 8 - "5.5548" is not a valid Object Type.
   ** Severe  ** Line: 1902 Index: 8 - "0.3099" is not a valid Object Type.
   ** Severe  ** Line: 1919 Index: 8 - "5.5548" is not a valid Object Type.
   ** Severe  ** Line: 1920 Index: 8 - "5.5548" is not a valid Object Type.
   ** Severe  ** Line: 1921 Index: 8 - "0.3099" is not a valid Object Type.
   ** Severe  ** Line: 1938 Index: 8 - "5.5548" is not a valid Object Type.
   ** Severe  ** Line: 1939 Index: 8 - "5.5548" is not a valid Object Type.
   ** Severe  ** Line: 1940 Index: 8 - "5.5548" is not a valid Object Type.
   ** Severe  ** Line: 1957 Index: 8 - "0.3099" is not a valid Object Type.
   ** Severe  ** Line: 1958 Index: 8 - "0.3099" is not a valid Object Type.
   ** Severe  ** Line: 1959 Index: 8 - "5.5548" is not a valid Object Type.
   ** Severe  ** Line: 1976 Index: 8 - "0.3099" is not a valid Object Type.
   ** Severe  ** Line: 1977 Index: 8 - "0.3099" is not a valid Object Type.
   ** Severe  ** Line: 1978 Index: 8 - "0.3099" is not a valid Object Type.
   ** Severe  ** Line: 1995 Index: 10 - "-14.1036" is not a valid Object Type.
   ** Severe  ** Line: 1996 Index: 10 - "-14.1036" is not a valid Object Type.
   ** Severe  ** Line: 1997 Index: 10 - "-24.2519" is not a valid Object Type.
   ** Severe  ** Line: 2014 Index: 10 - "-14.1036" is not a valid Object Type.
   ** Severe  ** Line: 2015 Index: 10 - "-14.1036" is not a valid Object Type.
   ** Severe  ** Line: 2016 Index: 10 - "-24.2519" is not a valid Object Type.
   ** Severe  ** Line: 2033 Index: 10 - "-14.1036" is not a valid Object Type.
   ** Severe  ** Line: 2034 Index: 10 - "-14.1036" is not a valid Object Type.
   ** Severe  ** Line: 2035 Index: 10 - "-24.2519" is not a valid Object Type.
   ** Severe  ** Line: 2052 Index: 10 - "-14.1036" is not a valid Object Type.
   ** Severe  ** Line: 2053 Index: 10 - "-14.1036" is not a valid Object Type.
   ** Severe  ** Line: 2054 Index: 10 - "-14.1036" is not a valid Object Type.
   ** Severe  ** Line: 2071 Index: 10 - "-24.2519" is not a valid Object Type.
   ** Severe  ** Line: 2072 Index: 10 - "-24.2519" is not a valid Object Type.
   ** Severe  ** Line: 2073 Index: 10 - "-14.1036" is not a valid Object Type.
   ** Severe  ** Line: 2090 Index: 10 - "-24.2519" is not a valid Object Type.
   ** Severe  ** Line: 2091 Index: 10 - "-24.2519" is not a valid Object Type.
   ** Severe  ** Line: 2092 Index: 10 - "-24.2519" is not a valid Object Type.
   ** Severe  ** Line: 2109 Index: 9 - "-9.6813" is not a valid Object Type.
   ** Severe  ** Line: 2110 Index: 9 - "-9.6813" is not a valid Object Type.
   ** Severe  ** Line: 2111 Index: 10 - "-15.5508" is not a valid Object Type.
   ** Severe  ** Line: 2128 Index: 9 - "-9.6813" is not a valid Object Type.
   ** Severe  ** Line: 2129 Index: 9 - "-9.6813" is not a valid Object Type.
   ** Severe  ** Line: 2130 Index: 10 - "-15.5508" is not a valid Object Type.
   ** Severe  ** Line: 2147 Index: 9 - "-9.6813" is not a valid Object Type.
   ** Severe  ** Line: 2148 Index: 9 - "-9.6813" is not a valid Object Type.
   ** Severe  ** Line: 2149 Index: 10 - "-15.5508" is not a valid Object Type.
   ** Severe  ** Line: 2166 Index: 9 - "-9.6813" is not a valid Object Type.
   ** Severe  ** Line: 2167 Index: 9 - "-9.6813" is not a valid Object Type.
   ** Severe  ** Line: 2168 Index: 9 - "-9.6813" is not a valid Object Type.
   ** Severe  ** Line: 2185 Index: 10 - "-15.5508" is not a valid Object Type.
   ** Severe  ** Line: 2186 Index: 10 - "-15.5508" is not a valid Object Type.
   ** Severe  ** Line: 2187 Index: 9 - "-9.6813" is not a valid Object Type.
   ** Severe  ** Line: 2204 Index: 10 - "-15.5508" is not a valid Object Type.
   ** Severe  ** Line: 2205 Index: 10 - "-15.5508" is not a valid Object Type.
   ** Severe  ** Line: 2206 Index: 10 - "-15.5508" is not a valid Object Type.
   ** Severe  ** Line: 2223 Index: 10 - "-15.4128" is not a valid Object Type.
   ** Severe  ** Line: 2224 Index: 10 - "-15.4128" is not a valid Object Type.
   ** Severe  ** Line: 2225 Index: 10 - "-20.8699" is not a valid Object Type.
   ** Severe  ** Line: 2242 Index: 10 - "-15.4128" is not a valid Object Type.
   ** Severe  ** Line: 2243 Index: 10 - "-15.4128" is not a valid Object Type.
   ** Severe  ** Line: 2244 Index: 10 - "-20.8699" is not a valid Object Type.
   ** Severe  ** Line: 2261 Index: 10 - "-15.4128" is not a valid Object Type.
   ** Severe  ** Line: 2262 Index: 10 - "-15.4128" is not a valid Object Type.
   ** Severe  ** Line: 2263 Index: 10 - "-20.8699" is not a valid Object Type.
   ** Severe  ** Line: 2280 Index: 10 - "-15.4128" is not a valid Object Type.
   ** Severe  ** Line: 2281 Index: 10 - "-15.4128" is not a valid Object Type.
   ** Severe  ** Line: 2282 Index: 10 - "-15.4128" is not a valid Object Type.
   ** Severe  ** Line: 2299 Index: 10 - "-20.8699" is not a valid Object Type.
   ** Severe  ** Line: 2300 Index: 10 - "-20.8699" is not a valid Object Type.
   ** Severe  ** Line: 2301 Index: 10 - "-15.4128" is not a valid Object Type.
   ** Severe  ** Line: 2318 Index: 10 - "-20.8699" is not a valid Object Type.
   ** Severe  ** Line: 2319 Index: 10 - "-20.8699" is not a valid Object Type.
   ** Severe  ** Line: 2320 Index: 10 - "-20.8699" is not a valid Object Type.
   ** Severe  ** Line: 2337 Index: 10 - "-17.7056" is not a valid Object Type.
   ** Severe  ** Line: 2338 Index: 10 - "-17.7056" is not a valid Object Type.
   ** Severe  ** Line: 2339 Index: 10 - "-22.0289" is not a valid Object Type.
   ** Severe  ** Line: 2356 Index: 10 - "-17.7056" is not a valid Object Type.
   ** Severe  ** Line: 2357 Index: 10 - "-17.7056" is not a valid Object Type.
   ** Severe  ** Line: 2358 Index: 10 - "-22.0289" is not a valid Object Type.
   ** Severe  ** Line: 2375 Index: 10 - "-17.7056" is not a valid Object Type.
   ** Severe  ** Line: 2376 Index: 10 - "-17.7056" is not a valid Object Type.
   ** Severe  ** Line: 2377 Index: 10 - "-22.0289" is not a valid Object Type.
   ** Severe  ** Line: 2394 Index: 10 - "-17.7056" is not a valid Object Type.
   ** Severe  ** Line: 2395 Index: 10 - "-17.7056" is not a valid Object Type.
   ** Severe  ** Line: 2396 Index: 10 - "-17.7056" is not a valid Object Type.
   ** Severe  ** Line: 2413 Index: 10 - "-22.0289" is not a valid Object Type.
   ** Severe  ** Line: 2414 Index: 10 - "-22.0289" is not a valid Object Type.
   ** Severe  ** Line: 2415 Index: 10 - "-17.7056" is not a valid Object Type.
   ** Severe  ** Line: 2432 Index: 10 - "-22.0289" is not a valid Object Type.
   ** Severe  ** Line: 2433 Index: 10 - "-22.0289" is not a valid Object Type.
   ** Severe  ** Line: 2434 Index: 10 - "-22.0289" is not a valid Object Type.
   ** Severe  ** Line: 2451 Index: 8 - "0.6813" is not a valid Object Type.
   ** Severe  ** Line: 2452 Index: 8 - "0.6813" is not a valid Object Type.
   ** Severe  ** Line: 2453 Index: 10 - "-14.1065" is not a valid Object Type.
   ** Severe  ** Line: 2470 Index: 8 - "0.6813" is not a valid Object Type.
   ** Severe  ** Line: 2471 Index: 8 - "0.6813" is not a valid Object Type.
   ** Severe  ** Line: 2472 Index: 10 - "-14.1065" is not a valid Object Type.
   ** Severe  ** Line: 2489 Index: 8 - "0.6813" is not a valid Object Type.
   ** Severe  ** Line: 2490 Index: 8 - "0.6813" is not a valid Object Type.
   ** Severe  ** Line: 2491 Index: 10 - "-14.1065" is not a valid Object Type.
   ** Severe  ** Line: 2508 Index: 8 - "0.6813" is not a valid Object Type.
   ** Severe  ** Line: 2509 Index: 8 - "0.6813" is not a valid Object Type.
   ** Severe  ** Line: 2510 Index: 8 - "0.6813" is not a valid Object Type.
   ** Severe  ** Line: 2527 Index: 10 - "-14.1065" is not a valid Object Type.
   ** Severe  ** Line: 2528 Index: 10 - "-14.1065" is not a valid Object Type.
   ** Severe  ** Line: 2529 Index: 8 - "0.6813" is not a valid Object Type.
   ** Severe  ** Line: 2546 Index: 10 - "-14.1065" is not a valid Object Type.
   ** Severe  ** Line: 2547 Index: 10 - "-14.1065" is not a valid Object Type.
   ** Severe  ** Line: 2548 Index: 10 - "-14.1065" is not a valid Object Type.
   ** Severe  ** Line: 2565 Index: 10 - "-16.6928" is not a valid Object Type.
   ** Severe  ** Line: 2566 Index: 10 - "-16.6928" is not a valid Object Type.
   ** Severe  ** Line: 2567 Index: 10 - "-21.2683" is not a valid Object Type.
   ** Severe  ** Line: 2584 Index: 10 - "-16.6928" is not a valid Object Type.
   ** Severe  ** Line: 2585 Index: 10 - "-16.6928" is not a valid Object Type.
   ** Severe  ** Line: 2586 Index: 10 - "-21.2683" is not a valid Object Type.
   ** Severe  ** Line: 2603 Index: 10 - "-16.6928" is not a valid Object Type.
   ** Severe  ** Line: 2604 Index: 10 - "-16.6928" is not a valid Object Type.
   ** Severe  ** Line: 2605 Index: 10 - "-21.2683" is not a valid Object Type.
   ** Severe  ** Line: 2622 Index: 10 - "-16.6928" is not a valid Object Type.
   ** Severe  ** Line: 2623 Index: 10 - "-16.6928" is not a valid Object Type.
   ** Severe  ** Line: 2624 Index: 10 - "-16.6928" is not a valid Object Type.
   ** Severe  ** Line: 2641 Index: 10 - "-21.2683" is not a valid Object Type.
   ** Severe  ** Line: 2642 Index: 10 - "-21.2683" is not a valid Object Type.
   ** Severe  ** Line: 2643 Index: 10 - "-16.6928" is not a valid Object Type.
   ** Severe  ** Line: 2660 Index: 10 - "-21.2683" is not a valid Object Type.
   ** Severe  ** Line: 2661 Index: 10 - "-21.2683" is not a valid Object Type.
   ** Severe  ** Line: 2662 Index: 10 - "-21.2683" is not a valid Object Type.
   ** Severe  ** Line: 2679 Index: 9 - "21.0936" is not a valid Object Type.
   ** Severe  ** Line: 2680 Index: 9 - "21.0936" is not a valid Object Type.
   ** Severe  ** Line: 2681 Index: 9 - "14.5200" is not a valid Object Type.
   ** Severe  ** Line: 2698 Index: 9 - "21.0936" is not a valid Object Type.
   ** Severe  ** Line: 2699 Index: 9 - "21.0936" is not a valid Object Type.
   ** Severe  ** Line: 2700 Index: 9 - "14.5200" is not a valid Object Type.
   ** Severe  ** Line: 2717 Index: 9 - "21.0936" is not a valid Object Type.
   ** Severe  ** Line: 2718 Index: 9 - "21.0936" is not a valid Object Type.
   ** Severe  ** Line: 2719 Index: 9 - "14.5200" is not a valid Object Type.
   ** Severe  ** Line: 2736 Index: 9 - "21.0936" is not a valid Object Type.
   ** Severe  ** Line: 2737 Index: 9 - "21.0936" is not a valid Object Type.
   ** Severe  ** Line: 2738 Index: 9 - "21.0936" is not a valid Object Type.
   ** Severe  ** Line: 2755 Index: 9 - "14.5200" is not a valid Object Type.
   ** Severe  ** Line: 2756 Index: 9 - "14.5200" is not a valid Object Type.
   ** Severe  ** Line: 2757 Index: 9 - "21.0936" is not a valid Object Type.
   ** Severe  ** Line: 2774 Index: 9 - "14.5200" is not a valid Object Type.
   ** Severe  ** Line: 2775 Index: 9 - "14.5200" is not a valid Object Type.
   ** Severe  ** Line: 2776 Index: 9 - "14.5200" is not a valid Object Type.
   ** Severe  ** Line: 2791 Index: 10 - "-17.0823" is not a valid Object Type.
   ** Severe  ** Line: 2792 Index: 10 - "-14.0823" is not a valid Object Type.
   ** Severe  ** Line: 2793 Index: 10 - "-14.0823" is not a valid Object Type.
   ** Severe  ** Line: 2808 Index: 10 - "-12.7255" is not a valid Object Type.
   ** Severe  ** Line: 2809 Index: 9 - "-9.7255" is not a valid Object Type.
   ** Severe  ** Line: 2810 Index: 9 - "-9.7255" is not a valid Object Type.
   ** Severe  ** Line: 2825 Index: 10 - "-17.0823" is not a valid Object Type.
   ** Severe  ** Line: 2826 Index: 10 - "-14.0823" is not a valid Object Type.
   ** Severe  ** Line: 2827 Index: 10 - "-14.0823" is not a valid Object Type.
   ** Severe  ** Line: 2842 Index: 10 - "-21.4390" is not a valid Object Type.
   ** Severe  ** Line: 2843 Index: 10 - "-18.4390" is not a valid Object Type.
   ** Severe  ** Line: 2844 Index: 10 - "-18.4390" is not a valid Object Type.
   ** Severe  ** Line: 2859 Index: 9 - "16.4569" is not a valid Object Type.
   ** Severe  ** Line: 2860 Index: 9 - "19.3069" is not a valid Object Type.
   ** Severe  ** Line: 2861 Index: 9 - "19.3069" is not a valid Object Type.
   ** Severe  ** Line: 2876 Index: 9 - "18.7568" is not a valid Object Type.
   ** Severe  ** Line: 2877 Index: 9 - "21.7568" is not a valid Object Type.
   ** Severe  ** Line: 2878 Index: 9 - "21.7568" is not a valid Object Type.
   ** Severe  ** Line: 2893 Index: 9 - "16.4569" is not a valid Object Type.
   ** Severe  ** Line: 2894 Index: 9 - "19.3069" is not a valid Object Type.
   ** Severe  ** Line: 2895 Index: 9 - "19.3069" is not a valid Object Type.
   ** Severe  ** Line: 2910 Index: 9 - "14.0069" is not a valid Object Type.
   ** Severe  ** Line: 2911 Index: 9 - "17.0069" is not a valid Object Type.
   ** Severe  ** Line: 2912 Index: 9 - "17.0069" is not a valid Object Type.
   ** Severe  ** Line: 2927 Index: 10 - "-11.6091" is not a valid Object Type.
   ** Severe  ** Line: 2928 Index: 9 - "-9.0230" is not a valid Object Type.
   ** Severe  ** Line: 2929 Index: 9 - "-9.0230" is not a valid Object Type.
   ** Severe  ** Line: 2944 Index: 9 - "-9.6610" is not a valid Object Type.
   ** Severe  ** Line: 2945 Index: 9 - "-6.6610" is not a valid Object Type.
   ** Severe  ** Line: 2946 Index: 9 - "-6.6610" is not a valid Object Type.
   ** Severe  ** Line: 2961 Index: 10 - "-11.6091" is not a valid Object Type.
   ** Severe  ** Line: 2962 Index: 9 - "-9.0230" is not a valid Object Type.
   ** Severe  ** Line: 2963 Index: 9 - "-9.0230" is not a valid Object Type.
   ** Severe  ** Line: 2978 Index: 10 - "-13.9711" is not a valid Object Type.
   ** Severe  ** Line: 2979 Index: 10 - "-10.9711" is not a valid Object Type.
   ** Severe  ** Line: 2980 Index: 10 - "-10.9711" is not a valid Object Type.
   ** Severe  ** Line: 2995 Index: 8 - "0.1579" is not a valid Object Type.
   ** Severe  ** Line: 2996 Index: 8 - "3.1579" is not a valid Object Type.
   ** Severe  ** Line: 2997 Index: 8 - "3.1579" is not a valid Object Type.
   ** Severe  ** Line: 3012 Index: 8 - "7.9303" is not a valid Object Type.
   ** Severe  ** Line: 3013 Index: 9 - "10.9303" is not a valid Object Type.
   ** Severe  ** Line: 3014 Index: 9 - "10.9303" is not a valid Object Type.
   ** Severe  ** Line: 3029 Index: 8 - "0.1579" is not a valid Object Type.
   ** Severe  ** Line: 3030 Index: 8 - "3.1579" is not a valid Object Type.
   ** Severe  ** Line: 3031 Index: 8 - "3.1579" is not a valid Object Type.
   ** Severe  ** Line: 3046 Index: 9 - "-7.6145" is not a valid Object Type.
   ** Severe  ** Line: 3047 Index: 9 - "-4.6145" is not a valid Object Type.
   ** Severe  ** Line: 3048 Index: 9 - "-4.6145" is not a valid Object Type.
   ** Severe  ** Line: 3063 Index: 10 - "-18.8160" is not a valid Object Type.
   ** Severe  ** Line: 3064 Index: 10 - "-16.1482" is not a valid Object Type.
   ** Severe  ** Line: 3065 Index: 10 - "-16.1482" is not a valid Object Type.
   ** Severe  ** Line: 3080 Index: 10 - "-16.7589" is not a valid Object Type.
   ** Severe  ** Line: 3081 Index: 10 - "-13.7589" is not a valid Object Type.
   ** Severe  ** Line: 3082 Index: 10 - "-13.7589" is not a valid Object Type.
   ** Severe  ** Line: 3097 Index: 10 - "-18.8160" is not a valid Object Type.
   ** Severe  ** Line: 3098 Index: 10 - "-16.1482" is not a valid Object Type.
   ** Severe  ** Line: 3099 Index: 10 - "-16.1482" is not a valid Object Type.
   ** Severe  ** Line: 3114 Index: 10 - "-21.2053" is not a valid Object Type.
   ** Severe  ** Line: 3115 Index: 10 - "-18.2053" is not a valid Object Type.
   ** Severe  ** Line: 3116 Index: 10 - "-18.2053" is not a valid Object Type.
   ** Severe  ** Line: 3131 Index: 10 - "-14.4922" is not a valid Object Type.
   ** Severe  ** Line: 3132 Index: 10 - "-11.4922" is not a valid Object Type.
   ** Severe  ** Line: 3133 Index: 10 - "-11.4922" is not a valid Object Type.
   ** Severe  ** Line: 3148 Index: 10 - "-11.4876" is not a valid Object Type.
   ** Severe  ** Line: 3149 Index: 9 - "-8.4876" is not a valid Object Type.
   ** Severe  ** Line: 3150 Index: 9 - "-8.4876" is not a valid Object Type.
   ** Severe  ** Line: 3165 Index: 10 - "-14.4922" is not a valid Object Type.
   ** Severe  ** Line: 3166 Index: 10 - "-11.4922" is not a valid Object Type.
   ** Severe  ** Line: 3167 Index: 10 - "-11.4922" is not a valid Object Type.
   ** Severe  ** Line: 3182 Index: 10 - "-17.4968" is not a valid Object Type.
   ** Severe  ** Line: 3183 Index: 10 - "-14.4968" is not a valid Object Type.
   ** Severe  ** Line: 3184 Index: 10 - "-14.4968" is not a valid Object Type.
   ** Severe  ** Line: 3199 Index: 9 - "-8.7374" is not a valid Object Type.
   ** Severe  ** Line: 3200 Index: 9 - "-5.7374" is not a valid Object Type.
   ** Severe  ** Line: 3201 Index: 9 - "-5.7374" is not a valid Object Type.
   ** Severe  ** Line: 3216 Index: 9 - "-3.2402" is not a valid Object Type.
   ** Severe  ** Line: 3217 Index: 9 - "-0.2402" is not a valid Object Type.
   ** Severe  ** Line: 3218 Index: 9 - "-0.2402" is not a valid Object Type.
   ** Severe  ** Line: 3233 Index: 9 - "-8.7374" is not a valid Object Type.
   ** Severe  ** Line: 3234 Index: 9 - "-5.7374" is not a valid Object Type.
   ** Severe  ** Line: 3235 Index: 9 - "-5.7374" is not a valid Object Type.
   ** Severe  ** Line: 3250 Index: 10 - "-14.2345" is not a valid Object Type.
   ** Severe  ** Line: 3251 Index: 10 - "-11.2345" is not a valid Object Type.
   ** Severe  ** Line: 3252 Index: 10 - "-11.2345" is not a valid Object Type.
   ** Severe  ** Line: 3267 Index: 10 - "-16.8388" is not a valid Object Type.
   ** Severe  ** Line: 3268 Index: 10 - "-13.8388" is not a valid Object Type.
   ** Severe  ** Line: 3269 Index: 10 - "-13.8388" is not a valid Object Type.
   ** Severe  ** Line: 3284 Index: 10 - "-12.4038" is not a valid Object Type.
   ** Severe  ** Line: 3285 Index: 9 - "-9.4038" is not a valid Object Type.
   ** Severe  ** Line: 3286 Index: 9 - "-9.4038" is not a valid Object Type.
   ** Severe  ** Line: 3301 Index: 10 - "-16.8388" is not a valid Object Type.
   ** Severe  ** Line: 3302 Index: 10 - "-13.8388" is not a valid Object Type.
   ** Severe  ** Line: 3303 Index: 10 - "-13.8388" is not a valid Object Type.
   ** Severe  ** Line: 3318 Index: 10 - "-21.2738" is not a valid Object Type.
   ** Severe  ** Line: 3319 Index: 10 - "-18.2738" is not a valid Object Type.
   ** Severe  ** Line: 3320 Index: 10 - "-18.2738" is not a valid Object Type.
   ** Severe  ** Line: 3335 Index: 9 - "-3.9145" is not a valid Object Type.
   ** Severe  ** Line: 3336 Index: 9 - "-0.9145" is not a valid Object Type.
   ** Severe  ** Line: 3337 Index: 9 - "-0.9145" is not a valid Object Type.
   ** Severe  ** Line: 3352 Index: 9 - "-0.9138" is not a valid Object Type.
   ** Severe  ** Line: 3353 Index: 8 - "2.0862" is not a valid Object Type.
   ** Severe  ** Line: 3354 Index: 8 - "2.0862" is not a valid Object Type.
   ** Severe  ** Line: 3369 Index: 9 - "-3.9145" is not a valid Object Type.
   ** Severe  ** Line: 3370 Index: 9 - "-0.9145" is not a valid Object Type.
   ** Severe  ** Line: 3371 Index: 9 - "-0.9145" is not a valid Object Type.
   ** Severe  ** Line: 3386 Index: 9 - "-6.9152" is not a valid Object Type.
   ** Severe  ** Line: 3387 Index: 9 - "-3.9152" is not a valid Object Type.
   ** Severe  ** Line: 3388 Index: 9 - "-3.9152" is not a valid Object Type.
   ** Severe  ** Line: 3403 Index: 9 - "-3.5039" is not a valid Object Type.
   ** Severe  ** Line: 3404 Index: 9 - "-0.5039" is not a valid Object Type.
   ** Severe  ** Line: 3405 Index: 9 - "-0.5039" is not a valid Object Type.
   ** Severe  ** Line: 3420 Index: 8 - "0.5102" is not a valid Object Type.
   ** Severe  ** Line: 3421 Index: 8 - "3.5102" is not a valid Object Type.
   ** Severe  ** Line: 3422 Index: 8 - "3.5102" is not a valid Object Type.
   ** Severe  ** Line: 3437 Index: 9 - "-3.5039" is not a valid Object Type.
   ** Severe  ** Line: 3438 Index: 9 - "-0.5039" is not a valid Object Type.
   ** Severe  ** Line: 3439 Index: 9 - "-0.5039" is not a valid Object Type.
   ** Severe  ** Line: 3454 Index: 9 - "-7.5180" is not a valid Object Type.
   ** Severe  ** Line: 3455 Index: 9 - "-4.5180" is not a valid Object Type.
   ** Severe  ** Line: 3456 Index: 9 - "-4.5180" is not a valid Object Type.
   ** Severe  ** Line: 3471 Index: 8 - "2.8491" is not a valid Object Type.
   ** Severe  ** Line: 3472 Index: 8 - "5.8491" is not a valid Object Type.
   ** Severe  ** Line: 3473 Index: 8 - "5.8491" is not a valid Object Type.
   ** Severe  ** Line: 3488 Index: 8 - "7.7862" is not a valid Object Type.
   ** Severe  ** Line: 3489 Index: 9 - "10.7862" is not a valid Object Type.
   ** Severe  ** Line: 3490 Index: 9 - "10.7862" is not a valid Object Type.
   ** Severe  ** Line: 3505 Index: 8 - "2.8491" is not a valid Object Type.
   ** Severe  ** Line: 3506 Index: 8 - "5.8491" is not a valid Object Type.
   ** Severe  ** Line: 3507 Index: 8 - "5.8491" is not a valid Object Type.
   ** Severe  ** Line: 3522 Index: 9 - "-2.0881" is not a valid Object Type.
   ** Severe  ** Line: 3523 Index: 8 - "0.9119" is not a valid Object Type.
   ** Severe  ** Line: 3524 Index: 8 - "0.9119" is not a valid Object Type.
   ** Severe  ** Line: 3539 Index: 9 - "18.1763" is not a valid Object Type.
   ** Severe  ** Line: 3540 Index: 9 - "20.5520" is not a valid Object Type.
   ** Severe  ** Line: 3541 Index: 9 - "20.5520" is not a valid Object Type.
   ** Severe  ** Line: 3556 Index: 9 - "19.9493" is not a valid Object Type.
   ** Severe  ** Line: 3557 Index: 9 - "22.7386" is not a valid Object Type.
   ** Severe  ** Line: 3558 Index: 9 - "22.7386" is not a valid Object Type.
   ** Severe  ** Line: 3573 Index: 9 - "18.1763" is not a valid Object Type.
   ** Severe  ** Line: 3574 Index: 9 - "20.5520" is not a valid Object Type.
   ** Severe  ** Line: 3575 Index: 9 - "20.5520" is not a valid Object Type.
   ** Severe  ** Line: 3590 Index: 9 - "15.9897" is not a valid Object Type.
   ** Severe  ** Line: 3591 Index: 9 - "18.7790" is not a valid Object Type.
   ** Severe  ** Line: 3592 Index: 9 - "18.7790" is not a valid Object Type.
   ** Severe  ** Line: 3607 Index: 8 - "1.4323" is not a valid Object Type.
   ** Severe  ** Line: 3608 Index: 8 - "4.4323" is not a valid Object Type.
   ** Severe  ** Line: 3609 Index: 8 - "4.4323" is not a valid Object Type.
   ** Severe  ** Line: 3624 Index: 8 - "4.0548" is not a valid Object Type.
   ** Severe  ** Line: 3625 Index: 8 - "7.0548" is not a valid Object Type.
   ** Severe  ** Line: 3626 Index: 8 - "7.0548" is not a valid Object Type.
   ** Severe  ** Line: 3641 Index: 8 - "1.4323" is not a valid Object Type.
   ** Severe  ** Line: 3642 Index: 8 - "4.4323" is not a valid Object Type.
   ** Severe  ** Line: 3643 Index: 8 - "4.4323" is not a valid Object Type.
   ** Severe  ** Line: 3658 Index: 9 - "-1.1901" is not a valid Object Type.
   ** Severe  ** Line: 3659 Index: 8 - "1.8099" is not a valid Object Type.
   ** Severe  ** Line: 3660 Index: 8 - "1.8099" is not a valid Object Type.
   ** Severe  ** Line: 3675 Index: 10 - "-20.6778" is not a valid Object Type.
   ** Severe  ** Line: 3676 Index: 10 - "-17.6778" is not a valid Object Type.
   ** Severe  ** Line: 3677 Index: 10 - "-17.6778" is not a valid Object Type.
   ** Severe  ** Line: 3692 Index: 10 - "-15.6036" is not a valid Object Type.
   ** Severe  ** Line: 3693 Index: 10 - "-12.6036" is not a valid Object Type.
   ** Severe  ** Line: 3694 Index: 10 - "-12.6036" is not a valid Object Type.
   ** Severe  ** Line: 3709 Index: 10 - "-20.6778" is not a valid Object Type.
   ** Severe  ** Line: 3710 Index: 10 - "-17.6778" is not a valid Object Type.
   ** Severe  ** Line: 3711 Index: 10 - "-17.6778" is not a valid Object Type.
   ** Severe  ** Line: 3726 Index: 10 - "-25.7519" is not a valid Object Type.
   ** Severe  ** Line: 3727 Index: 10 - "-22.7519" is not a valid Object Type.
   ** Severe  ** Line: 3728 Index: 10 - "-22.7519" is not a valid Object Type.
   ** Severe  ** Line: 3743 Index: 10 - "-14.1161" is not a valid Object Type.
   ** Severe  ** Line: 3744 Index: 10 - "-11.1161" is not a valid Object Type.
   ** Severe  ** Line: 3745 Index: 10 - "-11.1161" is not a valid Object Type.
   ** Severe  ** Line: 3760 Index: 10 - "-11.1813" is not a valid Object Type.
   ** Severe  ** Line: 3761 Index: 9 - "-8.1813" is not a valid Object Type.
   ** Severe  ** Line: 3762 Index: 9 - "-8.1813" is not a valid Object Type.
   ** Severe  ** Line: 3777 Index: 10 - "-14.1161" is not a valid Object Type.
   ** Severe  ** Line: 3778 Index: 10 - "-11.1161" is not a valid Object Type.
   ** Severe  ** Line: 3779 Index: 10 - "-11.1161" is not a valid Object Type.
   ** Severe  ** Line: 3794 Index: 10 - "-17.0508" is not a valid Object Type.
   ** Severe  ** Line: 3795 Index: 10 - "-14.0508" is not a valid Object Type.
   ** Severe  ** Line: 3796 Index: 10 - "-14.0508" is not a valid Object Type.
   ** Severe  ** Line: 3811 Index: 10 - "-19.6414" is not a valid Object Type.
   ** Severe  ** Line: 3812 Index: 10 - "-16.6414" is not a valid Object Type.
   ** Severe  ** Line: 3813 Index: 10 - "-16.6414" is not a valid Object Type.
   ** Severe  ** Line: 3828 Index: 10 - "-16.9128" is not a valid Object Type.
   ** Severe  ** Line: 3829 Index: 10 - "-13.9128" is not a valid Object Type.
   ** Severe  ** Line: 3830 Index: 10 - "-13.9128" is not a valid Object Type.
   ** Severe  ** Line: 3845 Index: 10 - "-19.6414" is not a valid Object Type.
   ** Severe  ** Line: 3846 Index: 10 - "-16.6414" is not a valid Object Type.
   ** Severe  ** Line: 3847 Index: 10 - "-16.6414" is not a valid Object Type.
   ** Severe  ** Line: 3862 Index: 10 - "-22.3699" is not a valid Object Type.
   ** Severe  ** Line: 3863 Index: 10 - "-19.3699" is not a valid Object Type.
   ** Severe  ** Line: 3864 Index: 10 - "-19.3699" is not a valid Object Type.
   ** Severe  ** Line: 3879 Index: 10 - "-21.1643" is not a valid Object Type.
   ** Severe  ** Line: 3880 Index: 10 - "-18.5703" is not a valid Object Type.
   ** Severe  ** Line: 3881 Index: 10 - "-18.5703" is not a valid Object Type.
   ** Severe  ** Line: 3896 Index: 10 - "-19.2056" is not a valid Object Type.
   ** Severe  ** Line: 3897 Index: 10 - "-16.2056" is not a valid Object Type.
   ** Severe  ** Line: 3898 Index: 10 - "-16.2056" is not a valid Object Type.
   ** Severe  ** Line: 3913 Index: 10 - "-21.1643" is not a valid Object Type.
   ** Severe  ** Line: 3914 Index: 10 - "-18.5703" is not a valid Object Type.
   ** Severe  ** Line: 3915 Index: 10 - "-18.5703" is not a valid Object Type.
   ** Severe  ** Line: 3930 Index: 10 - "-23.5289" is not a valid Object Type.
   ** Severe  ** Line: 3931 Index: 10 - "-20.5289" is not a valid Object Type.
   ** Severe  ** Line: 3932 Index: 10 - "-20.5289" is not a valid Object Type.
   ** Severe  ** Line: 3947 Index: 9 - "-8.2126" is not a valid Object Type.
   ** Severe  ** Line: 3948 Index: 9 - "-5.2126" is not a valid Object Type.
   ** Severe  ** Line: 3949 Index: 9 - "-5.2126" is not a valid Object Type.
   ** Severe  ** Line: 3964 Index: 9 - "-0.8187" is not a valid Object Type.
   ** Severe  ** Line: 3965 Index: 8 - "2.1813" is not a valid Object Type.
   ** Severe  ** Line: 3966 Index: 8 - "2.1813" is not a valid Object Type.
   ** Severe  ** Line: 3981 Index: 9 - "-8.2126" is not a valid Object Type.
   ** Severe  ** Line: 3982 Index: 9 - "-5.2126" is not a valid Object Type.
   ** Severe  ** Line: 3983 Index: 9 - "-5.2126" is not a valid Object Type.
   ** Severe  ** Line: 3998 Index: 10 - "-15.6065" is not a valid Object Type.
   ** Severe  ** Line: 3999 Index: 10 - "-12.6065" is not a valid Object Type.
   ** Severe  ** Line: 4000 Index: 10 - "-12.6065" is not a valid Object Type.
   ** Severe  ** Line: 4015 Index: 10 - "-20.3532" is not a valid Object Type.
   ** Severe  ** Line: 4016 Index: 10 - "-17.6079" is not a valid Object Type.
   ** Severe  ** Line: 4017 Index: 10 - "-17.6079" is not a valid Object Type.
   ** Severe  ** Line: 4032 Index: 10 - "-18.1928" is not a valid Object Type.
   ** Severe  ** Line: 4033 Index: 10 - "-15.1928" is not a valid Object Type.
   ** Severe  ** Line: 4034 Index: 10 - "-15.1928" is not a valid Object Type.
   ** Severe  ** Line: 4049 Index: 10 - "-20.3532" is not a valid Object Type.
   ** Severe  ** Line: 4050 Index: 10 - "-17.6079" is not a valid Object Type.
   ** Severe  ** Line: 4051 Index: 10 - "-17.6079" is not a valid Object Type.
   ** Severe  ** Line: 4066 Index: 10 - "-22.7683" is not a valid Object Type.
   ** Severe  ** Line: 4067 Index: 10 - "-19.7683" is not a valid Object Type.
   ** Severe  ** Line: 4068 Index: 10 - "-19.7683" is not a valid Object Type.
   ** Severe  ** Line: 4083 Index: 9 - "16.3068" is not a valid Object Type.
   ** Severe  ** Line: 4084 Index: 9 - "19.3068" is not a valid Object Type.
   ** Severe  ** Line: 4085 Index: 9 - "19.3068" is not a valid Object Type.
   ** Severe  ** Line: 4100 Index: 9 - "19.5936" is not a valid Object Type.
   ** Severe  ** Line: 4101 Index: 9 - "22.5936" is not a valid Object Type.
   ** Severe  ** Line: 4102 Index: 9 - "22.5936" is not a valid Object Type.
   ** Severe  ** Line: 4117 Index: 9 - "16.3068" is not a valid Object Type.
   ** Severe  ** Line: 4118 Index: 9 - "19.3068" is not a valid Object Type.
   ** Severe  ** Line: 4119 Index: 9 - "19.3068" is not a valid Object Type.
   ** Severe  ** Line: 4134 Index: 9 - "13.0200" is not a valid Object Type.
   ** Severe  ** Line: 4135 Index: 9 - "16.0200" is not a valid Object Type.
   ** Severe  ** Line: 4136 Index: 9 - "16.0200" is not a valid Object Type.
   ** Severe  ** <root>[FenestrationSurface:Detailed][break_room_0_Window_1] - Missing required property 'vertex_2_x_coordinate'.
   ** Severe  ** <root>[FenestrationSurface:Detailed][break_room_0_Window_1] - Missing required property 'vertex_2_y_coordinate'.
   ** Severe  ** <root>[FenestrationSurface:Detailed][break_room_0_Window_1] - Missing required property 'vertex_2_z_coordinate'.
   ** Severe  ** <root>[FenestrationSurface:Detailed][break_room_0_Window_1] - Missing required property 'vertex_3_x_coordinate'.
   ** Severe  ** <root>[FenestrationSurface:Detailed][break_room_0_Window_1] - Missing required property 'vertex_3_y_coordinate'.
   ** Severe  ** <root>[FenestrationSurface:Detailed][break_room_0_Window_1] - Missing required property 'vertex_3_z_coordinate'.
   ** Severe  ** <root>[Output:VariableDictionary][Output:VariableDictionary 1][key_field] - "IDD" - Failed to match against any enum values.
   ** Warning ** Version: in IDF="25.1" not the same as expected="24.2"
   **  Fatal  ** Errors occurred on processing input file. Preceding condition(s) cause termination.
   ...Summary of Errors that led to program termination:
   ..... Reference severe error count=614
   ..... Last severe error=<root>[Output:VariableDictionary][Output:VariableDictionary 1][key_field] - "IDD" - Failed to match against any enum values.
   ************* Warning:  Node connection errors not checked - most system input has not been read (see previous warning).
   ************* Fatal error -- final processing.  Program exited before simulations began.  See previous error messages.
   ************* EnergyPlus Warmup Error Summary. During Warmup: 0 Warning; 0 Severe Errors.
   ************* EnergyPlus Sizing Error Summary. During Sizing: 0 Warning; 0 Severe Errors.
   ************* EnergyPlus Terminated--Fatal Error Detected. 1 Warning; 614 Severe Errors; Elapsed Time=00hr 00min  0.17sec
