Program Version,EnergyPlus, Version 24.2.0-94a887817b, YMD=2025.11.02 10:35,
Var Type (reported time step),Var Report Type,Variable Name [Units]
Zone,Meter,Electricity:Facility [J]
Zone,Meter,Electricity:Building [J]
Zone,Meter,Electricity:Zone:CONFERENCE_0 [J]
Zone,Meter,Electricity:SpaceType:GENERAL [J]
Zone,Meter,InteriorLights:Electricity [J]
Zone,Meter,InteriorLights:Electricity:Zone:CONFERENCE_0 [J]
Zone,Meter,InteriorLights:Electricity:SpaceType:GENERAL [J]
Zone,Meter,General:InteriorLights:Electricity [J]
Zone,Meter,General:InteriorLights:Electricity:Zone:CONFERENCE_0 [J]
Zone,Meter,General:InteriorLights:Electricity:SpaceType:GENERAL [J]
Zone,Meter,Electricity:Zone:BREAK_ROOM_0 [J]
Zone,Meter,InteriorLights:Electricity:Zone:BREAK_ROOM_0 [J]
Zone,Meter,General:InteriorLights:Electricity:Zone:BREAK_ROOM_0 [J]
Zone,Meter,Electricity:Zone:MECHANICAL_0 [J]
Zone,Meter,InteriorLights:Electricity:Zone:MECHANICAL_0 [J]
Zone,Meter,General:InteriorLights:Electricity:Zone:MECHANICAL_0 [J]
Zone,Meter,Electricity:Zone:OFFICE_OPEN_0 [J]
Zone,Meter,InteriorLights:Electricity:Zone:OFFICE_OPEN_0 [J]
Zone,Meter,General:InteriorLights:Electricity:Zone:OFFICE_OPEN_0 [J]
Zone,Meter,Electricity:Zone:OFFICE_PRIVATE_0 [J]
Zone,Meter,InteriorLights:Electricity:Zone:OFFICE_PRIVATE_0 [J]
Zone,Meter,General:InteriorLights:Electricity:Zone:OFFICE_PRIVATE_0 [J]
Zone,Meter,Electricity:Zone:STORAGE_0 [J]
Zone,Meter,InteriorLights:Electricity:Zone:STORAGE_0 [J]
Zone,Meter,General:InteriorLights:Electricity:Zone:STORAGE_0 [J]
Zone,Meter,Electricity:Zone:LOBBY_1 [J]
Zone,Meter,InteriorLights:Electricity:Zone:LOBBY_1 [J]
Zone,Meter,General:InteriorLights:Electricity:Zone:LOBBY_1 [J]
Zone,Meter,Electricity:Zone:CONFERENCE_1 [J]
Zone,Meter,InteriorLights:Electricity:Zone:CONFERENCE_1 [J]
Zone,Meter,General:InteriorLights:Electricity:Zone:CONFERENCE_1 [J]
Zone,Meter,Electricity:Zone:BREAK_ROOM_1 [J]
Zone,Meter,InteriorLights:Electricity:Zone:BREAK_ROOM_1 [J]
Zone,Meter,General:InteriorLights:Electricity:Zone:BREAK_ROOM_1 [J]
Zone,Meter,Electricity:Zone:MECHANICAL_1 [J]
Zone,Meter,InteriorLights:Electricity:Zone:MECHANICAL_1 [J]
Zone,Meter,General:InteriorLights:Electricity:Zone:MECHANICAL_1 [J]
Zone,Meter,Electricity:Zone:OFFICE_OPEN_1 [J]
Zone,Meter,InteriorLights:Electricity:Zone:OFFICE_OPEN_1 [J]
Zone,Meter,General:InteriorLights:Electricity:Zone:OFFICE_OPEN_1 [J]
Zone,Meter,Electricity:Zone:OFFICE_PRIVATE_1 [J]
Zone,Meter,InteriorLights:Electricity:Zone:OFFICE_PRIVATE_1 [J]
Zone,Meter,General:InteriorLights:Electricity:Zone:OFFICE_PRIVATE_1 [J]
Zone,Meter,Electricity:Zone:STORAGE_1 [J]
Zone,Meter,InteriorLights:Electricity:Zone:STORAGE_1 [J]
Zone,Meter,General:InteriorLights:Electricity:Zone:STORAGE_1 [J]
Zone,Meter,Electricity:Zone:LOBBY_2 [J]
Zone,Meter,InteriorLights:Electricity:Zone:LOBBY_2 [J]
Zone,Meter,General:InteriorLights:Electricity:Zone:LOBBY_2 [J]
Zone,Meter,Electricity:Zone:CONFERENCE_2 [J]
Zone,Meter,InteriorLights:Electricity:Zone:CONFERENCE_2 [J]
Zone,Meter,General:InteriorLights:Electricity:Zone:CONFERENCE_2 [J]
Zone,Meter,Electricity:Zone:BREAK_ROOM_2 [J]
Zone,Meter,InteriorLights:Electricity:Zone:BREAK_ROOM_2 [J]
Zone,Meter,General:InteriorLights:Electricity:Zone:BREAK_ROOM_2 [J]
Zone,Meter,Electricity:Zone:OFFICE_OPEN_2 [J]
Zone,Meter,InteriorLights:Electricity:Zone:OFFICE_OPEN_2 [J]
Zone,Meter,General:InteriorLights:Electricity:Zone:OFFICE_OPEN_2 [J]
Zone,Meter,Electricity:Zone:OFFICE_PRIVATE_2 [J]
Zone,Meter,InteriorLights:Electricity:Zone:OFFICE_PRIVATE_2 [J]
Zone,Meter,General:InteriorLights:Electricity:Zone:OFFICE_PRIVATE_2 [J]
Zone,Meter,Electricity:Zone:STORAGE_2 [J]
Zone,Meter,InteriorLights:Electricity:Zone:STORAGE_2 [J]
Zone,Meter,General:InteriorLights:Electricity:Zone:STORAGE_2 [J]
Zone,Meter,Electricity:Zone:LOBBY_3 [J]
Zone,Meter,InteriorLights:Electricity:Zone:LOBBY_3 [J]
Zone,Meter,General:InteriorLights:Electricity:Zone:LOBBY_3 [J]
Zone,Meter,Electricity:Zone:CONFERENCE_3 [J]
Zone,Meter,InteriorLights:Electricity:Zone:CONFERENCE_3 [J]
Zone,Meter,General:InteriorLights:Electricity:Zone:CONFERENCE_3 [J]
Zone,Meter,Electricity:Zone:BREAK_ROOM_3 [J]
Zone,Meter,InteriorLights:Electricity:Zone:BREAK_ROOM_3 [J]
Zone,Meter,General:InteriorLights:Electricity:Zone:BREAK_ROOM_3 [J]
Zone,Meter,Electricity:Zone:OFFICE_OPEN_3 [J]
Zone,Meter,InteriorLights:Electricity:Zone:OFFICE_OPEN_3 [J]
Zone,Meter,General:InteriorLights:Electricity:Zone:OFFICE_OPEN_3 [J]
Zone,Meter,Electricity:Zone:OFFICE_PRIVATE_3 [J]
Zone,Meter,InteriorLights:Electricity:Zone:OFFICE_PRIVATE_3 [J]
Zone,Meter,General:InteriorLights:Electricity:Zone:OFFICE_PRIVATE_3 [J]
Zone,Meter,Electricity:Zone:LOBBY_4 [J]
Zone,Meter,InteriorLights:Electricity:Zone:LOBBY_4 [J]
Zone,Meter,General:InteriorLights:Electricity:Zone:LOBBY_4 [J]
Zone,Meter,Electricity:Zone:CONFERENCE_4 [J]
Zone,Meter,InteriorLights:Electricity:Zone:CONFERENCE_4 [J]
Zone,Meter,General:InteriorLights:Electricity:Zone:CONFERENCE_4 [J]
Zone,Meter,Electricity:Zone:BREAK_ROOM_4 [J]
Zone,Meter,InteriorLights:Electricity:Zone:BREAK_ROOM_4 [J]
Zone,Meter,General:InteriorLights:Electricity:Zone:BREAK_ROOM_4 [J]
Zone,Meter,Electricity:Zone:MECHANICAL_4 [J]
Zone,Meter,InteriorLights:Electricity:Zone:MECHANICAL_4 [J]
Zone,Meter,General:InteriorLights:Electricity:Zone:MECHANICAL_4 [J]
Zone,Meter,Electricity:Zone:OFFICE_OPEN_4 [J]
Zone,Meter,InteriorLights:Electricity:Zone:OFFICE_OPEN_4 [J]
Zone,Meter,General:InteriorLights:Electricity:Zone:OFFICE_OPEN_4 [J]
Zone,Meter,Electricity:Zone:OFFICE_PRIVATE_4 [J]
Zone,Meter,InteriorLights:Electricity:Zone:OFFICE_PRIVATE_4 [J]
Zone,Meter,General:InteriorLights:Electricity:Zone:OFFICE_PRIVATE_4 [J]
Zone,Meter,Electricity:Zone:STORAGE_4 [J]
Zone,Meter,InteriorLights:Electricity:Zone:STORAGE_4 [J]
Zone,Meter,General:InteriorLights:Electricity:Zone:STORAGE_4 [J]
Zone,Meter,Electricity:Zone:LOBBY_5 [J]
Zone,Meter,InteriorLights:Electricity:Zone:LOBBY_5 [J]
Zone,Meter,General:InteriorLights:Electricity:Zone:LOBBY_5 [J]
Zone,Meter,Electricity:Zone:CONFERENCE_5 [J]
Zone,Meter,InteriorLights:Electricity:Zone:CONFERENCE_5 [J]
Zone,Meter,General:InteriorLights:Electricity:Zone:CONFERENCE_5 [J]
Zone,Meter,Electricity:Zone:BREAK_ROOM_5 [J]
Zone,Meter,InteriorLights:Electricity:Zone:BREAK_ROOM_5 [J]
Zone,Meter,General:InteriorLights:Electricity:Zone:BREAK_ROOM_5 [J]
Zone,Meter,Electricity:Zone:MECHANICAL_5 [J]
Zone,Meter,InteriorLights:Electricity:Zone:MECHANICAL_5 [J]
Zone,Meter,General:InteriorLights:Electricity:Zone:MECHANICAL_5 [J]
Zone,Meter,Electricity:Zone:OFFICE_OPEN_5 [J]
Zone,Meter,InteriorLights:Electricity:Zone:OFFICE_OPEN_5 [J]
Zone,Meter,General:InteriorLights:Electricity:Zone:OFFICE_OPEN_5 [J]
Zone,Meter,Electricity:Zone:OFFICE_PRIVATE_5 [J]
Zone,Meter,InteriorLights:Electricity:Zone:OFFICE_PRIVATE_5 [J]
Zone,Meter,General:InteriorLights:Electricity:Zone:OFFICE_PRIVATE_5 [J]
Zone,Meter,Electricity:Zone:STORAGE_5 [J]
Zone,Meter,InteriorLights:Electricity:Zone:STORAGE_5 [J]
Zone,Meter,General:InteriorLights:Electricity:Zone:STORAGE_5 [J]
Zone,Meter,Electricity:Zone:CONFERENCE_6 [J]
Zone,Meter,InteriorLights:Electricity:Zone:CONFERENCE_6 [J]
Zone,Meter,General:InteriorLights:Electricity:Zone:CONFERENCE_6 [J]
Zone,Meter,Electricity:Zone:BREAK_ROOM_6 [J]
Zone,Meter,InteriorLights:Electricity:Zone:BREAK_ROOM_6 [J]
Zone,Meter,General:InteriorLights:Electricity:Zone:BREAK_ROOM_6 [J]
Zone,Meter,Electricity:Zone:OFFICE_OPEN_6 [J]
Zone,Meter,InteriorLights:Electricity:Zone:OFFICE_OPEN_6 [J]
Zone,Meter,General:InteriorLights:Electricity:Zone:OFFICE_OPEN_6 [J]
Zone,Meter,Electricity:Zone:OFFICE_PRIVATE_6 [J]
Zone,Meter,InteriorLights:Electricity:Zone:OFFICE_PRIVATE_6 [J]
Zone,Meter,General:InteriorLights:Electricity:Zone:OFFICE_PRIVATE_6 [J]
Zone,Meter,Electricity:Zone:STORAGE_6 [J]
Zone,Meter,InteriorLights:Electricity:Zone:STORAGE_6 [J]
Zone,Meter,General:InteriorLights:Electricity:Zone:STORAGE_6 [J]
Zone,Meter,Electricity:Zone:LOBBY_7 [J]
Zone,Meter,InteriorLights:Electricity:Zone:LOBBY_7 [J]
Zone,Meter,General:InteriorLights:Electricity:Zone:LOBBY_7 [J]
Zone,Meter,Electricity:Zone:CONFERENCE_7 [J]
Zone,Meter,InteriorLights:Electricity:Zone:CONFERENCE_7 [J]
Zone,Meter,General:InteriorLights:Electricity:Zone:CONFERENCE_7 [J]
Zone,Meter,Electricity:Zone:BREAK_ROOM_7 [J]
Zone,Meter,InteriorLights:Electricity:Zone:BREAK_ROOM_7 [J]
Zone,Meter,General:InteriorLights:Electricity:Zone:BREAK_ROOM_7 [J]
Zone,Meter,Electricity:Zone:MECHANICAL_7 [J]
Zone,Meter,InteriorLights:Electricity:Zone:MECHANICAL_7 [J]
Zone,Meter,General:InteriorLights:Electricity:Zone:MECHANICAL_7 [J]
Zone,Meter,Electricity:Zone:OFFICE_OPEN_7 [J]
Zone,Meter,InteriorLights:Electricity:Zone:OFFICE_OPEN_7 [J]
Zone,Meter,General:InteriorLights:Electricity:Zone:OFFICE_OPEN_7 [J]
Zone,Meter,Electricity:Zone:OFFICE_PRIVATE_7 [J]
Zone,Meter,InteriorLights:Electricity:Zone:OFFICE_PRIVATE_7 [J]
Zone,Meter,General:InteriorLights:Electricity:Zone:OFFICE_PRIVATE_7 [J]
Zone,Meter,Electricity:Zone:STORAGE_7 [J]
Zone,Meter,InteriorLights:Electricity:Zone:STORAGE_7 [J]
Zone,Meter,General:InteriorLights:Electricity:Zone:STORAGE_7 [J]
Zone,Meter,Electricity:Zone:LOBBY_8 [J]
Zone,Meter,InteriorLights:Electricity:Zone:LOBBY_8 [J]
Zone,Meter,General:InteriorLights:Electricity:Zone:LOBBY_8 [J]
Zone,Meter,Electricity:Zone:CONFERENCE_8 [J]
Zone,Meter,InteriorLights:Electricity:Zone:CONFERENCE_8 [J]
Zone,Meter,General:InteriorLights:Electricity:Zone:CONFERENCE_8 [J]
Zone,Meter,Electricity:Zone:BREAK_ROOM_8 [J]
Zone,Meter,InteriorLights:Electricity:Zone:BREAK_ROOM_8 [J]
Zone,Meter,General:InteriorLights:Electricity:Zone:BREAK_ROOM_8 [J]
Zone,Meter,Electricity:Zone:MECHANICAL_8 [J]
Zone,Meter,InteriorLights:Electricity:Zone:MECHANICAL_8 [J]
Zone,Meter,General:InteriorLights:Electricity:Zone:MECHANICAL_8 [J]
Zone,Meter,Electricity:Zone:OFFICE_OPEN_8 [J]
Zone,Meter,InteriorLights:Electricity:Zone:OFFICE_OPEN_8 [J]
Zone,Meter,General:InteriorLights:Electricity:Zone:OFFICE_OPEN_8 [J]
Zone,Meter,Electricity:Zone:STORAGE_8 [J]
Zone,Meter,InteriorLights:Electricity:Zone:STORAGE_8 [J]
Zone,Meter,General:InteriorLights:Electricity:Zone:STORAGE_8 [J]
Zone,Meter,Electricity:Zone:LOBBY_9 [J]
Zone,Meter,InteriorLights:Electricity:Zone:LOBBY_9 [J]
Zone,Meter,General:InteriorLights:Electricity:Zone:LOBBY_9 [J]
Zone,Meter,Electricity:Zone:CONFERENCE_9 [J]
Zone,Meter,InteriorLights:Electricity:Zone:CONFERENCE_9 [J]
Zone,Meter,General:InteriorLights:Electricity:Zone:CONFERENCE_9 [J]
Zone,Meter,Electricity:Zone:BREAK_ROOM_9 [J]
Zone,Meter,InteriorLights:Electricity:Zone:BREAK_ROOM_9 [J]
Zone,Meter,General:InteriorLights:Electricity:Zone:BREAK_ROOM_9 [J]
Zone,Meter,Electricity:Zone:MECHANICAL_9 [J]
Zone,Meter,InteriorLights:Electricity:Zone:MECHANICAL_9 [J]
Zone,Meter,General:InteriorLights:Electricity:Zone:MECHANICAL_9 [J]
Zone,Meter,Electricity:Zone:OFFICE_OPEN_9 [J]
Zone,Meter,InteriorLights:Electricity:Zone:OFFICE_OPEN_9 [J]
Zone,Meter,General:InteriorLights:Electricity:Zone:OFFICE_OPEN_9 [J]
Zone,Meter,Electricity:Zone:STORAGE_9 [J]
Zone,Meter,InteriorLights:Electricity:Zone:STORAGE_9 [J]
Zone,Meter,General:InteriorLights:Electricity:Zone:STORAGE_9 [J]
Zone,Meter,Electricity:Zone:LOBBY_10 [J]
Zone,Meter,InteriorLights:Electricity:Zone:LOBBY_10 [J]
Zone,Meter,General:InteriorLights:Electricity:Zone:LOBBY_10 [J]
Zone,Meter,Electricity:Zone:CONFERENCE_10 [J]
Zone,Meter,InteriorLights:Electricity:Zone:CONFERENCE_10 [J]
Zone,Meter,General:InteriorLights:Electricity:Zone:CONFERENCE_10 [J]
Zone,Meter,Electricity:Zone:BREAK_ROOM_10 [J]
Zone,Meter,InteriorLights:Electricity:Zone:BREAK_ROOM_10 [J]
Zone,Meter,General:InteriorLights:Electricity:Zone:BREAK_ROOM_10 [J]
Zone,Meter,Electricity:Zone:MECHANICAL_10 [J]
Zone,Meter,InteriorLights:Electricity:Zone:MECHANICAL_10 [J]
Zone,Meter,General:InteriorLights:Electricity:Zone:MECHANICAL_10 [J]
Zone,Meter,Electricity:Zone:OFFICE_OPEN_10 [J]
Zone,Meter,InteriorLights:Electricity:Zone:OFFICE_OPEN_10 [J]
Zone,Meter,General:InteriorLights:Electricity:Zone:OFFICE_OPEN_10 [J]
Zone,Meter,Electricity:Zone:OFFICE_PRIVATE_10 [J]
Zone,Meter,InteriorLights:Electricity:Zone:OFFICE_PRIVATE_10 [J]
Zone,Meter,General:InteriorLights:Electricity:Zone:OFFICE_PRIVATE_10 [J]
Zone,Meter,Electricity:Zone:STORAGE_10 [J]
Zone,Meter,InteriorLights:Electricity:Zone:STORAGE_10 [J]
Zone,Meter,General:InteriorLights:Electricity:Zone:STORAGE_10 [J]
Zone,Meter,Electricity:Zone:LOBBY_11 [J]
Zone,Meter,InteriorLights:Electricity:Zone:LOBBY_11 [J]
Zone,Meter,General:InteriorLights:Electricity:Zone:LOBBY_11 [J]
Zone,Meter,Electricity:Zone:CONFERENCE_11 [J]
Zone,Meter,InteriorLights:Electricity:Zone:CONFERENCE_11 [J]
Zone,Meter,General:InteriorLights:Electricity:Zone:CONFERENCE_11 [J]
Zone,Meter,Electricity:Zone:BREAK_ROOM_11 [J]
Zone,Meter,InteriorLights:Electricity:Zone:BREAK_ROOM_11 [J]
Zone,Meter,General:InteriorLights:Electricity:Zone:BREAK_ROOM_11 [J]
Zone,Meter,Electricity:Zone:MECHANICAL_11 [J]
Zone,Meter,InteriorLights:Electricity:Zone:MECHANICAL_11 [J]
Zone,Meter,General:InteriorLights:Electricity:Zone:MECHANICAL_11 [J]
Zone,Meter,Electricity:Zone:OFFICE_OPEN_11 [J]
Zone,Meter,InteriorLights:Electricity:Zone:OFFICE_OPEN_11 [J]
Zone,Meter,General:InteriorLights:Electricity:Zone:OFFICE_OPEN_11 [J]
Zone,Meter,Electricity:Zone:OFFICE_PRIVATE_11 [J]
Zone,Meter,InteriorLights:Electricity:Zone:OFFICE_PRIVATE_11 [J]
Zone,Meter,General:InteriorLights:Electricity:Zone:OFFICE_PRIVATE_11 [J]
Zone,Meter,Electricity:Zone:STORAGE_11 [J]
Zone,Meter,InteriorLights:Electricity:Zone:STORAGE_11 [J]
Zone,Meter,General:InteriorLights:Electricity:Zone:STORAGE_11 [J]
Zone,Meter,Electricity:Zone:LOBBY_12 [J]
Zone,Meter,InteriorLights:Electricity:Zone:LOBBY_12 [J]
Zone,Meter,General:InteriorLights:Electricity:Zone:LOBBY_12 [J]
Zone,Meter,Electricity:Zone:CONFERENCE_12 [J]
Zone,Meter,InteriorLights:Electricity:Zone:CONFERENCE_12 [J]
Zone,Meter,General:InteriorLights:Electricity:Zone:CONFERENCE_12 [J]
Zone,Meter,Electricity:Zone:BREAK_ROOM_12 [J]
Zone,Meter,InteriorLights:Electricity:Zone:BREAK_ROOM_12 [J]
Zone,Meter,General:InteriorLights:Electricity:Zone:BREAK_ROOM_12 [J]
Zone,Meter,Electricity:Zone:OFFICE_OPEN_12 [J]
Zone,Meter,InteriorLights:Electricity:Zone:OFFICE_OPEN_12 [J]
Zone,Meter,General:InteriorLights:Electricity:Zone:OFFICE_OPEN_12 [J]
Zone,Meter,Electricity:Zone:OFFICE_PRIVATE_12 [J]
Zone,Meter,InteriorLights:Electricity:Zone:OFFICE_PRIVATE_12 [J]
Zone,Meter,General:InteriorLights:Electricity:Zone:OFFICE_PRIVATE_12 [J]
Zone,Meter,Electricity:Zone:STORAGE_12 [J]
Zone,Meter,InteriorLights:Electricity:Zone:STORAGE_12 [J]
Zone,Meter,General:InteriorLights:Electricity:Zone:STORAGE_12 [J]
Zone,Meter,Electricity:Zone:LOBBY_13 [J]
Zone,Meter,InteriorLights:Electricity:Zone:LOBBY_13 [J]
Zone,Meter,General:InteriorLights:Electricity:Zone:LOBBY_13 [J]
Zone,Meter,Electricity:Zone:CONFERENCE_13 [J]
Zone,Meter,InteriorLights:Electricity:Zone:CONFERENCE_13 [J]
Zone,Meter,General:InteriorLights:Electricity:Zone:CONFERENCE_13 [J]
Zone,Meter,Electricity:Zone:BREAK_ROOM_13 [J]
Zone,Meter,InteriorLights:Electricity:Zone:BREAK_ROOM_13 [J]
Zone,Meter,General:InteriorLights:Electricity:Zone:BREAK_ROOM_13 [J]
Zone,Meter,Electricity:Zone:MECHANICAL_13 [J]
Zone,Meter,InteriorLights:Electricity:Zone:MECHANICAL_13 [J]
Zone,Meter,General:InteriorLights:Electricity:Zone:MECHANICAL_13 [J]
Zone,Meter,Electricity:Zone:OFFICE_OPEN_13 [J]
Zone,Meter,InteriorLights:Electricity:Zone:OFFICE_OPEN_13 [J]
Zone,Meter,General:InteriorLights:Electricity:Zone:OFFICE_OPEN_13 [J]
Zone,Meter,Electricity:Zone:OFFICE_PRIVATE_13 [J]
Zone,Meter,InteriorLights:Electricity:Zone:OFFICE_PRIVATE_13 [J]
Zone,Meter,General:InteriorLights:Electricity:Zone:OFFICE_PRIVATE_13 [J]
Zone,Meter,Electricity:Zone:LOBBY_14 [J]
Zone,Meter,InteriorLights:Electricity:Zone:LOBBY_14 [J]
Zone,Meter,General:InteriorLights:Electricity:Zone:LOBBY_14 [J]
Zone,Meter,Electricity:Zone:CONFERENCE_14 [J]
Zone,Meter,InteriorLights:Electricity:Zone:CONFERENCE_14 [J]
Zone,Meter,General:InteriorLights:Electricity:Zone:CONFERENCE_14 [J]
Zone,Meter,Electricity:Zone:BREAK_ROOM_14 [J]
Zone,Meter,InteriorLights:Electricity:Zone:BREAK_ROOM_14 [J]
Zone,Meter,General:InteriorLights:Electricity:Zone:BREAK_ROOM_14 [J]
Zone,Meter,Electricity:Zone:MECHANICAL_14 [J]
Zone,Meter,InteriorLights:Electricity:Zone:MECHANICAL_14 [J]
Zone,Meter,General:InteriorLights:Electricity:Zone:MECHANICAL_14 [J]
Zone,Meter,Electricity:Zone:OFFICE_PRIVATE_14 [J]
Zone,Meter,InteriorLights:Electricity:Zone:OFFICE_PRIVATE_14 [J]
Zone,Meter,General:InteriorLights:Electricity:Zone:OFFICE_PRIVATE_14 [J]
Zone,Meter,Electricity:Zone:STORAGE_14 [J]
Zone,Meter,InteriorLights:Electricity:Zone:STORAGE_14 [J]
Zone,Meter,General:InteriorLights:Electricity:Zone:STORAGE_14 [J]
Zone,Meter,Electricity:Zone:LOBBY_15 [J]
Zone,Meter,InteriorLights:Electricity:Zone:LOBBY_15 [J]
Zone,Meter,General:InteriorLights:Electricity:Zone:LOBBY_15 [J]
Zone,Meter,Electricity:Zone:CONFERENCE_15 [J]
Zone,Meter,InteriorLights:Electricity:Zone:CONFERENCE_15 [J]
Zone,Meter,General:InteriorLights:Electricity:Zone:CONFERENCE_15 [J]
Zone,Meter,Electricity:Zone:BREAK_ROOM_15 [J]
Zone,Meter,InteriorLights:Electricity:Zone:BREAK_ROOM_15 [J]
Zone,Meter,General:InteriorLights:Electricity:Zone:BREAK_ROOM_15 [J]
Zone,Meter,Electricity:Zone:MECHANICAL_15 [J]
Zone,Meter,InteriorLights:Electricity:Zone:MECHANICAL_15 [J]
Zone,Meter,General:InteriorLights:Electricity:Zone:MECHANICAL_15 [J]
Zone,Meter,Electricity:Zone:OFFICE_OPEN_15 [J]
Zone,Meter,InteriorLights:Electricity:Zone:OFFICE_OPEN_15 [J]
Zone,Meter,General:InteriorLights:Electricity:Zone:OFFICE_OPEN_15 [J]
Zone,Meter,Electricity:Zone:OFFICE_PRIVATE_15 [J]
Zone,Meter,InteriorLights:Electricity:Zone:OFFICE_PRIVATE_15 [J]
Zone,Meter,General:InteriorLights:Electricity:Zone:OFFICE_PRIVATE_15 [J]
Zone,Meter,Electricity:Zone:STORAGE_15 [J]
Zone,Meter,InteriorLights:Electricity:Zone:STORAGE_15 [J]
Zone,Meter,General:InteriorLights:Electricity:Zone:STORAGE_15 [J]
Zone,Meter,Electricity:Zone:LOBBY_16 [J]
Zone,Meter,InteriorLights:Electricity:Zone:LOBBY_16 [J]
Zone,Meter,General:InteriorLights:Electricity:Zone:LOBBY_16 [J]
Zone,Meter,Electricity:Zone:CONFERENCE_16 [J]
Zone,Meter,InteriorLights:Electricity:Zone:CONFERENCE_16 [J]
Zone,Meter,General:InteriorLights:Electricity:Zone:CONFERENCE_16 [J]
Zone,Meter,Electricity:Zone:BREAK_ROOM_16 [J]
Zone,Meter,InteriorLights:Electricity:Zone:BREAK_ROOM_16 [J]
Zone,Meter,General:InteriorLights:Electricity:Zone:BREAK_ROOM_16 [J]
Zone,Meter,Electricity:Zone:MECHANICAL_16 [J]
Zone,Meter,InteriorLights:Electricity:Zone:MECHANICAL_16 [J]
Zone,Meter,General:InteriorLights:Electricity:Zone:MECHANICAL_16 [J]
Zone,Meter,Electricity:Zone:OFFICE_OPEN_16 [J]
Zone,Meter,InteriorLights:Electricity:Zone:OFFICE_OPEN_16 [J]
Zone,Meter,General:InteriorLights:Electricity:Zone:OFFICE_OPEN_16 [J]
Zone,Meter,Electricity:Zone:OFFICE_PRIVATE_16 [J]
Zone,Meter,InteriorLights:Electricity:Zone:OFFICE_PRIVATE_16 [J]
Zone,Meter,General:InteriorLights:Electricity:Zone:OFFICE_PRIVATE_16 [J]
Zone,Meter,Electricity:Zone:STORAGE_16 [J]
Zone,Meter,InteriorLights:Electricity:Zone:STORAGE_16 [J]
Zone,Meter,General:InteriorLights:Electricity:Zone:STORAGE_16 [J]
Zone,Meter,Electricity:Zone:LOBBY_17 [J]
Zone,Meter,InteriorLights:Electricity:Zone:LOBBY_17 [J]
Zone,Meter,General:InteriorLights:Electricity:Zone:LOBBY_17 [J]
Zone,Meter,Electricity:Zone:CONFERENCE_17 [J]
Zone,Meter,InteriorLights:Electricity:Zone:CONFERENCE_17 [J]
Zone,Meter,General:InteriorLights:Electricity:Zone:CONFERENCE_17 [J]
Zone,Meter,Electricity:Zone:BREAK_ROOM_17 [J]
Zone,Meter,InteriorLights:Electricity:Zone:BREAK_ROOM_17 [J]
Zone,Meter,General:InteriorLights:Electricity:Zone:BREAK_ROOM_17 [J]
Zone,Meter,Electricity:Zone:OFFICE_OPEN_17 [J]
Zone,Meter,InteriorLights:Electricity:Zone:OFFICE_OPEN_17 [J]
Zone,Meter,General:InteriorLights:Electricity:Zone:OFFICE_OPEN_17 [J]
Zone,Meter,Electricity:Zone:OFFICE_PRIVATE_17 [J]
Zone,Meter,InteriorLights:Electricity:Zone:OFFICE_PRIVATE_17 [J]
Zone,Meter,General:InteriorLights:Electricity:Zone:OFFICE_PRIVATE_17 [J]
Zone,Meter,Electricity:Zone:STORAGE_17 [J]
Zone,Meter,InteriorLights:Electricity:Zone:STORAGE_17 [J]
Zone,Meter,General:InteriorLights:Electricity:Zone:STORAGE_17 [J]
Zone,Meter,Electricity:Zone:LOBBY_18 [J]
Zone,Meter,InteriorLights:Electricity:Zone:LOBBY_18 [J]
Zone,Meter,General:InteriorLights:Electricity:Zone:LOBBY_18 [J]
Zone,Meter,Electricity:Zone:CONFERENCE_18 [J]
Zone,Meter,InteriorLights:Electricity:Zone:CONFERENCE_18 [J]
Zone,Meter,General:InteriorLights:Electricity:Zone:CONFERENCE_18 [J]
Zone,Meter,Electricity:Zone:BREAK_ROOM_18 [J]
Zone,Meter,InteriorLights:Electricity:Zone:BREAK_ROOM_18 [J]
Zone,Meter,General:InteriorLights:Electricity:Zone:BREAK_ROOM_18 [J]
Zone,Meter,Electricity:Zone:MECHANICAL_18 [J]
Zone,Meter,InteriorLights:Electricity:Zone:MECHANICAL_18 [J]
Zone,Meter,General:InteriorLights:Electricity:Zone:MECHANICAL_18 [J]
Zone,Meter,Electricity:Zone:OFFICE_OPEN_18 [J]
Zone,Meter,InteriorLights:Electricity:Zone:OFFICE_OPEN_18 [J]
Zone,Meter,General:InteriorLights:Electricity:Zone:OFFICE_OPEN_18 [J]
Zone,Meter,Electricity:Zone:STORAGE_18 [J]
Zone,Meter,InteriorLights:Electricity:Zone:STORAGE_18 [J]
Zone,Meter,General:InteriorLights:Electricity:Zone:STORAGE_18 [J]
Zone,Meter,Electricity:Zone:LOBBY_19 [J]
Zone,Meter,InteriorLights:Electricity:Zone:LOBBY_19 [J]
Zone,Meter,General:InteriorLights:Electricity:Zone:LOBBY_19 [J]
Zone,Meter,Electricity:Zone:CONFERENCE_19 [J]
Zone,Meter,InteriorLights:Electricity:Zone:CONFERENCE_19 [J]
Zone,Meter,General:InteriorLights:Electricity:Zone:CONFERENCE_19 [J]
Zone,Meter,Electricity:Zone:BREAK_ROOM_19 [J]
Zone,Meter,InteriorLights:Electricity:Zone:BREAK_ROOM_19 [J]
Zone,Meter,General:InteriorLights:Electricity:Zone:BREAK_ROOM_19 [J]
Zone,Meter,Electricity:Zone:MECHANICAL_19 [J]
Zone,Meter,InteriorLights:Electricity:Zone:MECHANICAL_19 [J]
Zone,Meter,General:InteriorLights:Electricity:Zone:MECHANICAL_19 [J]
Zone,Meter,Electricity:Zone:OFFICE_OPEN_19 [J]
Zone,Meter,InteriorLights:Electricity:Zone:OFFICE_OPEN_19 [J]
Zone,Meter,General:InteriorLights:Electricity:Zone:OFFICE_OPEN_19 [J]
Zone,Meter,Electricity:Zone:OFFICE_PRIVATE_19 [J]
Zone,Meter,InteriorLights:Electricity:Zone:OFFICE_PRIVATE_19 [J]
Zone,Meter,General:InteriorLights:Electricity:Zone:OFFICE_PRIVATE_19 [J]
Zone,Meter,Electricity:Zone:STORAGE_19 [J]
Zone,Meter,InteriorLights:Electricity:Zone:STORAGE_19 [J]
Zone,Meter,General:InteriorLights:Electricity:Zone:STORAGE_19 [J]
Zone,Meter,Electricity:Zone:LOBBY_20 [J]
Zone,Meter,InteriorLights:Electricity:Zone:LOBBY_20 [J]
Zone,Meter,General:InteriorLights:Electricity:Zone:LOBBY_20 [J]
Zone,Meter,Electricity:Zone:CONFERENCE_20 [J]
Zone,Meter,InteriorLights:Electricity:Zone:CONFERENCE_20 [J]
Zone,Meter,General:InteriorLights:Electricity:Zone:CONFERENCE_20 [J]
Zone,Meter,Electricity:Zone:BREAK_ROOM_20 [J]
Zone,Meter,InteriorLights:Electricity:Zone:BREAK_ROOM_20 [J]
Zone,Meter,General:InteriorLights:Electricity:Zone:BREAK_ROOM_20 [J]
Zone,Meter,Electricity:Zone:MECHANICAL_20 [J]
Zone,Meter,InteriorLights:Electricity:Zone:MECHANICAL_20 [J]
Zone,Meter,General:InteriorLights:Electricity:Zone:MECHANICAL_20 [J]
Zone,Meter,Electricity:Zone:OFFICE_OPEN_20 [J]
Zone,Meter,InteriorLights:Electricity:Zone:OFFICE_OPEN_20 [J]
Zone,Meter,General:InteriorLights:Electricity:Zone:OFFICE_OPEN_20 [J]
Zone,Meter,Electricity:Zone:OFFICE_PRIVATE_20 [J]
Zone,Meter,InteriorLights:Electricity:Zone:OFFICE_PRIVATE_20 [J]
Zone,Meter,General:InteriorLights:Electricity:Zone:OFFICE_PRIVATE_20 [J]
Zone,Meter,Electricity:Zone:STORAGE_20 [J]
Zone,Meter,InteriorLights:Electricity:Zone:STORAGE_20 [J]
Zone,Meter,General:InteriorLights:Electricity:Zone:STORAGE_20 [J]
Zone,Meter,Electricity:Zone:LOBBY_21 [J]
Zone,Meter,InteriorLights:Electricity:Zone:LOBBY_21 [J]
Zone,Meter,General:InteriorLights:Electricity:Zone:LOBBY_21 [J]
Zone,Meter,Electricity:Zone:CONFERENCE_21 [J]
Zone,Meter,InteriorLights:Electricity:Zone:CONFERENCE_21 [J]
Zone,Meter,General:InteriorLights:Electricity:Zone:CONFERENCE_21 [J]
Zone,Meter,Electricity:Zone:MECHANICAL_21 [J]
Zone,Meter,InteriorLights:Electricity:Zone:MECHANICAL_21 [J]
Zone,Meter,General:InteriorLights:Electricity:Zone:MECHANICAL_21 [J]
Zone,Meter,Electricity:Zone:OFFICE_OPEN_21 [J]
Zone,Meter,InteriorLights:Electricity:Zone:OFFICE_OPEN_21 [J]
Zone,Meter,General:InteriorLights:Electricity:Zone:OFFICE_OPEN_21 [J]
Zone,Meter,Electricity:Zone:STORAGE_21 [J]
Zone,Meter,InteriorLights:Electricity:Zone:STORAGE_21 [J]
Zone,Meter,General:InteriorLights:Electricity:Zone:STORAGE_21 [J]
Zone,Meter,Electricity:Zone:LOBBY_22 [J]
Zone,Meter,InteriorLights:Electricity:Zone:LOBBY_22 [J]
Zone,Meter,General:InteriorLights:Electricity:Zone:LOBBY_22 [J]
Zone,Meter,Electricity:Zone:CONFERENCE_22 [J]
Zone,Meter,InteriorLights:Electricity:Zone:CONFERENCE_22 [J]
Zone,Meter,General:InteriorLights:Electricity:Zone:CONFERENCE_22 [J]
Zone,Meter,Electricity:Zone:BREAK_ROOM_22 [J]
Zone,Meter,InteriorLights:Electricity:Zone:BREAK_ROOM_22 [J]
Zone,Meter,General:InteriorLights:Electricity:Zone:BREAK_ROOM_22 [J]
Zone,Meter,Electricity:Zone:MECHANICAL_22 [J]
Zone,Meter,InteriorLights:Electricity:Zone:MECHANICAL_22 [J]
Zone,Meter,General:InteriorLights:Electricity:Zone:MECHANICAL_22 [J]
Zone,Meter,Electricity:Zone:OFFICE_OPEN_22 [J]
Zone,Meter,InteriorLights:Electricity:Zone:OFFICE_OPEN_22 [J]
Zone,Meter,General:InteriorLights:Electricity:Zone:OFFICE_OPEN_22 [J]
Zone,Meter,Electricity:Zone:OFFICE_PRIVATE_22 [J]
Zone,Meter,InteriorLights:Electricity:Zone:OFFICE_PRIVATE_22 [J]
Zone,Meter,General:InteriorLights:Electricity:Zone:OFFICE_PRIVATE_22 [J]
Zone,Meter,Electricity:Zone:STORAGE_22 [J]
Zone,Meter,InteriorLights:Electricity:Zone:STORAGE_22 [J]
Zone,Meter,General:InteriorLights:Electricity:Zone:STORAGE_22 [J]
Zone,Meter,Electricity:Zone:LOBBY_23 [J]
Zone,Meter,InteriorLights:Electricity:Zone:LOBBY_23 [J]
Zone,Meter,General:InteriorLights:Electricity:Zone:LOBBY_23 [J]
Zone,Meter,Electricity:Zone:BREAK_ROOM_23 [J]
Zone,Meter,InteriorLights:Electricity:Zone:BREAK_ROOM_23 [J]
Zone,Meter,General:InteriorLights:Electricity:Zone:BREAK_ROOM_23 [J]
Zone,Meter,Electricity:Zone:MECHANICAL_23 [J]
Zone,Meter,InteriorLights:Electricity:Zone:MECHANICAL_23 [J]
Zone,Meter,General:InteriorLights:Electricity:Zone:MECHANICAL_23 [J]
Zone,Meter,Electricity:Zone:OFFICE_OPEN_23 [J]
Zone,Meter,InteriorLights:Electricity:Zone:OFFICE_OPEN_23 [J]
Zone,Meter,General:InteriorLights:Electricity:Zone:OFFICE_OPEN_23 [J]
Zone,Meter,Electricity:Zone:OFFICE_PRIVATE_23 [J]
Zone,Meter,InteriorLights:Electricity:Zone:OFFICE_PRIVATE_23 [J]
Zone,Meter,General:InteriorLights:Electricity:Zone:OFFICE_PRIVATE_23 [J]
Zone,Meter,Electricity:Zone:STORAGE_23 [J]
Zone,Meter,InteriorLights:Electricity:Zone:STORAGE_23 [J]
Zone,Meter,General:InteriorLights:Electricity:Zone:STORAGE_23 [J]
Zone,Meter,Electricity:Zone:LOBBY_24 [J]
Zone,Meter,InteriorLights:Electricity:Zone:LOBBY_24 [J]
Zone,Meter,General:InteriorLights:Electricity:Zone:LOBBY_24 [J]
Zone,Meter,Electricity:Zone:CONFERENCE_24 [J]
Zone,Meter,InteriorLights:Electricity:Zone:CONFERENCE_24 [J]
Zone,Meter,General:InteriorLights:Electricity:Zone:CONFERENCE_24 [J]
Zone,Meter,Electricity:Zone:BREAK_ROOM_24 [J]
Zone,Meter,InteriorLights:Electricity:Zone:BREAK_ROOM_24 [J]
Zone,Meter,General:InteriorLights:Electricity:Zone:BREAK_ROOM_24 [J]
Zone,Meter,Electricity:Zone:MECHANICAL_24 [J]
Zone,Meter,InteriorLights:Electricity:Zone:MECHANICAL_24 [J]
Zone,Meter,General:InteriorLights:Electricity:Zone:MECHANICAL_24 [J]
Zone,Meter,Electricity:Zone:OFFICE_OPEN_24 [J]
Zone,Meter,InteriorLights:Electricity:Zone:OFFICE_OPEN_24 [J]
Zone,Meter,General:InteriorLights:Electricity:Zone:OFFICE_OPEN_24 [J]
Zone,Meter,Electricity:Zone:OFFICE_PRIVATE_24 [J]
Zone,Meter,InteriorLights:Electricity:Zone:OFFICE_PRIVATE_24 [J]
Zone,Meter,General:InteriorLights:Electricity:Zone:OFFICE_PRIVATE_24 [J]
Zone,Meter,Electricity:Zone:STORAGE_24 [J]
Zone,Meter,InteriorLights:Electricity:Zone:STORAGE_24 [J]
Zone,Meter,General:InteriorLights:Electricity:Zone:STORAGE_24 [J]
Zone,Meter,Electricity:Zone:LOBBY_25 [J]
Zone,Meter,InteriorLights:Electricity:Zone:LOBBY_25 [J]
Zone,Meter,General:InteriorLights:Electricity:Zone:LOBBY_25 [J]
Zone,Meter,Electricity:Zone:CONFERENCE_25 [J]
Zone,Meter,InteriorLights:Electricity:Zone:CONFERENCE_25 [J]
Zone,Meter,General:InteriorLights:Electricity:Zone:CONFERENCE_25 [J]
Zone,Meter,Electricity:Zone:BREAK_ROOM_25 [J]
Zone,Meter,InteriorLights:Electricity:Zone:BREAK_ROOM_25 [J]
Zone,Meter,General:InteriorLights:Electricity:Zone:BREAK_ROOM_25 [J]
Zone,Meter,Electricity:Zone:MECHANICAL_25 [J]
Zone,Meter,InteriorLights:Electricity:Zone:MECHANICAL_25 [J]
Zone,Meter,General:InteriorLights:Electricity:Zone:MECHANICAL_25 [J]
Zone,Meter,Electricity:Zone:OFFICE_OPEN_25 [J]
Zone,Meter,InteriorLights:Electricity:Zone:OFFICE_OPEN_25 [J]
Zone,Meter,General:InteriorLights:Electricity:Zone:OFFICE_OPEN_25 [J]
Zone,Meter,Electricity:Zone:OFFICE_PRIVATE_25 [J]
Zone,Meter,InteriorLights:Electricity:Zone:OFFICE_PRIVATE_25 [J]
Zone,Meter,General:InteriorLights:Electricity:Zone:OFFICE_PRIVATE_25 [J]
Zone,Meter,Electricity:Zone:STORAGE_25 [J]
Zone,Meter,InteriorLights:Electricity:Zone:STORAGE_25 [J]
Zone,Meter,General:InteriorLights:Electricity:Zone:STORAGE_25 [J]
Zone,Meter,Electricity:Zone:LOBBY_26 [J]
Zone,Meter,InteriorLights:Electricity:Zone:LOBBY_26 [J]
Zone,Meter,General:InteriorLights:Electricity:Zone:LOBBY_26 [J]
Zone,Meter,Electricity:Zone:CONFERENCE_26 [J]
Zone,Meter,InteriorLights:Electricity:Zone:CONFERENCE_26 [J]
Zone,Meter,General:InteriorLights:Electricity:Zone:CONFERENCE_26 [J]
Zone,Meter,Electricity:Zone:BREAK_ROOM_26 [J]
Zone,Meter,InteriorLights:Electricity:Zone:BREAK_ROOM_26 [J]
Zone,Meter,General:InteriorLights:Electricity:Zone:BREAK_ROOM_26 [J]
Zone,Meter,Electricity:Zone:OFFICE_OPEN_26 [J]
Zone,Meter,InteriorLights:Electricity:Zone:OFFICE_OPEN_26 [J]
Zone,Meter,General:InteriorLights:Electricity:Zone:OFFICE_OPEN_26 [J]
Zone,Meter,Electricity:Zone:OFFICE_PRIVATE_26 [J]
Zone,Meter,InteriorLights:Electricity:Zone:OFFICE_PRIVATE_26 [J]
Zone,Meter,General:InteriorLights:Electricity:Zone:OFFICE_PRIVATE_26 [J]
Zone,Meter,Electricity:Zone:STORAGE_26 [J]
Zone,Meter,InteriorLights:Electricity:Zone:STORAGE_26 [J]
Zone,Meter,General:InteriorLights:Electricity:Zone:STORAGE_26 [J]
Zone,Meter,Electricity:Zone:LOBBY_27 [J]
Zone,Meter,InteriorLights:Electricity:Zone:LOBBY_27 [J]
Zone,Meter,General:InteriorLights:Electricity:Zone:LOBBY_27 [J]
Zone,Meter,Electricity:Zone:CONFERENCE_27 [J]
Zone,Meter,InteriorLights:Electricity:Zone:CONFERENCE_27 [J]
Zone,Meter,General:InteriorLights:Electricity:Zone:CONFERENCE_27 [J]
Zone,Meter,Electricity:Zone:BREAK_ROOM_27 [J]
Zone,Meter,InteriorLights:Electricity:Zone:BREAK_ROOM_27 [J]
Zone,Meter,General:InteriorLights:Electricity:Zone:BREAK_ROOM_27 [J]
Zone,Meter,Electricity:Zone:MECHANICAL_27 [J]
Zone,Meter,InteriorLights:Electricity:Zone:MECHANICAL_27 [J]
Zone,Meter,General:InteriorLights:Electricity:Zone:MECHANICAL_27 [J]
Zone,Meter,Electricity:Zone:OFFICE_OPEN_27 [J]
Zone,Meter,InteriorLights:Electricity:Zone:OFFICE_OPEN_27 [J]
Zone,Meter,General:InteriorLights:Electricity:Zone:OFFICE_OPEN_27 [J]
Zone,Meter,Electricity:Zone:OFFICE_PRIVATE_27 [J]
Zone,Meter,InteriorLights:Electricity:Zone:OFFICE_PRIVATE_27 [J]
Zone,Meter,General:InteriorLights:Electricity:Zone:OFFICE_PRIVATE_27 [J]
Zone,Meter,Electricity:Zone:STORAGE_27 [J]
Zone,Meter,InteriorLights:Electricity:Zone:STORAGE_27 [J]
Zone,Meter,General:InteriorLights:Electricity:Zone:STORAGE_27 [J]
Zone,Meter,Electricity:Zone:LOBBY_28 [J]
Zone,Meter,InteriorLights:Electricity:Zone:LOBBY_28 [J]
Zone,Meter,General:InteriorLights:Electricity:Zone:LOBBY_28 [J]
Zone,Meter,Electricity:Zone:CONFERENCE_28 [J]
Zone,Meter,InteriorLights:Electricity:Zone:CONFERENCE_28 [J]
Zone,Meter,General:InteriorLights:Electricity:Zone:CONFERENCE_28 [J]
Zone,Meter,Electricity:Zone:BREAK_ROOM_28 [J]
Zone,Meter,InteriorLights:Electricity:Zone:BREAK_ROOM_28 [J]
Zone,Meter,General:InteriorLights:Electricity:Zone:BREAK_ROOM_28 [J]
Zone,Meter,Electricity:Zone:MECHANICAL_28 [J]
Zone,Meter,InteriorLights:Electricity:Zone:MECHANICAL_28 [J]
Zone,Meter,General:InteriorLights:Electricity:Zone:MECHANICAL_28 [J]
Zone,Meter,Electricity:Zone:OFFICE_OPEN_28 [J]
Zone,Meter,InteriorLights:Electricity:Zone:OFFICE_OPEN_28 [J]
Zone,Meter,General:InteriorLights:Electricity:Zone:OFFICE_OPEN_28 [J]
Zone,Meter,Electricity:Zone:STORAGE_28 [J]
Zone,Meter,InteriorLights:Electricity:Zone:STORAGE_28 [J]
Zone,Meter,General:InteriorLights:Electricity:Zone:STORAGE_28 [J]
Zone,Meter,Electricity:Zone:CONFERENCE_29 [J]
Zone,Meter,InteriorLights:Electricity:Zone:CONFERENCE_29 [J]
Zone,Meter,General:InteriorLights:Electricity:Zone:CONFERENCE_29 [J]
Zone,Meter,Electricity:Zone:BREAK_ROOM_29 [J]
Zone,Meter,InteriorLights:Electricity:Zone:BREAK_ROOM_29 [J]
Zone,Meter,General:InteriorLights:Electricity:Zone:BREAK_ROOM_29 [J]
Zone,Meter,Electricity:Zone:OFFICE_OPEN_29 [J]
Zone,Meter,InteriorLights:Electricity:Zone:OFFICE_OPEN_29 [J]
Zone,Meter,General:InteriorLights:Electricity:Zone:OFFICE_OPEN_29 [J]
Zone,Meter,Electricity:Zone:OFFICE_PRIVATE_29 [J]
Zone,Meter,InteriorLights:Electricity:Zone:OFFICE_PRIVATE_29 [J]
Zone,Meter,General:InteriorLights:Electricity:Zone:OFFICE_PRIVATE_29 [J]
Zone,Meter,Electricity:Zone:STORAGE_29 [J]
Zone,Meter,InteriorLights:Electricity:Zone:STORAGE_29 [J]
Zone,Meter,General:InteriorLights:Electricity:Zone:STORAGE_29 [J]
Zone,Meter,Electricity:Zone:LOBBY_30 [J]
Zone,Meter,InteriorLights:Electricity:Zone:LOBBY_30 [J]
Zone,Meter,General:InteriorLights:Electricity:Zone:LOBBY_30 [J]
Zone,Meter,Electricity:Zone:CONFERENCE_30 [J]
Zone,Meter,InteriorLights:Electricity:Zone:CONFERENCE_30 [J]
Zone,Meter,General:InteriorLights:Electricity:Zone:CONFERENCE_30 [J]
Zone,Meter,Electricity:Zone:BREAK_ROOM_30 [J]
Zone,Meter,InteriorLights:Electricity:Zone:BREAK_ROOM_30 [J]
Zone,Meter,General:InteriorLights:Electricity:Zone:BREAK_ROOM_30 [J]
Zone,Meter,Electricity:Zone:MECHANICAL_30 [J]
Zone,Meter,InteriorLights:Electricity:Zone:MECHANICAL_30 [J]
Zone,Meter,General:InteriorLights:Electricity:Zone:MECHANICAL_30 [J]
Zone,Meter,Electricity:Zone:OFFICE_OPEN_30 [J]
Zone,Meter,InteriorLights:Electricity:Zone:OFFICE_OPEN_30 [J]
Zone,Meter,General:InteriorLights:Electricity:Zone:OFFICE_OPEN_30 [J]
Zone,Meter,Electricity:Zone:OFFICE_PRIVATE_30 [J]
Zone,Meter,InteriorLights:Electricity:Zone:OFFICE_PRIVATE_30 [J]
Zone,Meter,General:InteriorLights:Electricity:Zone:OFFICE_PRIVATE_30 [J]
Zone,Meter,Electricity:Zone:STORAGE_30 [J]
Zone,Meter,InteriorLights:Electricity:Zone:STORAGE_30 [J]
Zone,Meter,General:InteriorLights:Electricity:Zone:STORAGE_30 [J]
Zone,Meter,Electricity:Zone:LOBBY_31 [J]
Zone,Meter,InteriorLights:Electricity:Zone:LOBBY_31 [J]
Zone,Meter,General:InteriorLights:Electricity:Zone:LOBBY_31 [J]
Zone,Meter,Electricity:Zone:CONFERENCE_31 [J]
Zone,Meter,InteriorLights:Electricity:Zone:CONFERENCE_31 [J]
Zone,Meter,General:InteriorLights:Electricity:Zone:CONFERENCE_31 [J]
Zone,Meter,Electricity:Zone:BREAK_ROOM_31 [J]
Zone,Meter,InteriorLights:Electricity:Zone:BREAK_ROOM_31 [J]
Zone,Meter,General:InteriorLights:Electricity:Zone:BREAK_ROOM_31 [J]
Zone,Meter,Electricity:Zone:MECHANICAL_31 [J]
Zone,Meter,InteriorLights:Electricity:Zone:MECHANICAL_31 [J]
Zone,Meter,General:InteriorLights:Electricity:Zone:MECHANICAL_31 [J]
Zone,Meter,Electricity:Zone:OFFICE_OPEN_31 [J]
Zone,Meter,InteriorLights:Electricity:Zone:OFFICE_OPEN_31 [J]
Zone,Meter,General:InteriorLights:Electricity:Zone:OFFICE_OPEN_31 [J]
Zone,Meter,Electricity:Zone:OFFICE_PRIVATE_31 [J]
Zone,Meter,InteriorLights:Electricity:Zone:OFFICE_PRIVATE_31 [J]
Zone,Meter,General:InteriorLights:Electricity:Zone:OFFICE_PRIVATE_31 [J]
Zone,Meter,Electricity:Zone:STORAGE_31 [J]
Zone,Meter,InteriorLights:Electricity:Zone:STORAGE_31 [J]
Zone,Meter,General:InteriorLights:Electricity:Zone:STORAGE_31 [J]
Zone,Meter,Electricity:Zone:CONFERENCE_32 [J]
Zone,Meter,InteriorLights:Electricity:Zone:CONFERENCE_32 [J]
Zone,Meter,General:InteriorLights:Electricity:Zone:CONFERENCE_32 [J]
Zone,Meter,Electricity:Zone:BREAK_ROOM_32 [J]
Zone,Meter,InteriorLights:Electricity:Zone:BREAK_ROOM_32 [J]
Zone,Meter,General:InteriorLights:Electricity:Zone:BREAK_ROOM_32 [J]
Zone,Meter,Electricity:Zone:MECHANICAL_32 [J]
Zone,Meter,InteriorLights:Electricity:Zone:MECHANICAL_32 [J]
Zone,Meter,General:InteriorLights:Electricity:Zone:MECHANICAL_32 [J]
Zone,Meter,Electricity:Zone:OFFICE_OPEN_32 [J]
Zone,Meter,InteriorLights:Electricity:Zone:OFFICE_OPEN_32 [J]
Zone,Meter,General:InteriorLights:Electricity:Zone:OFFICE_OPEN_32 [J]
Zone,Meter,Electricity:Zone:OFFICE_PRIVATE_32 [J]
Zone,Meter,InteriorLights:Electricity:Zone:OFFICE_PRIVATE_32 [J]
Zone,Meter,General:InteriorLights:Electricity:Zone:OFFICE_PRIVATE_32 [J]
Zone,Meter,Electricity:Zone:STORAGE_32 [J]
Zone,Meter,InteriorLights:Electricity:Zone:STORAGE_32 [J]
Zone,Meter,General:InteriorLights:Electricity:Zone:STORAGE_32 [J]
Zone,Meter,Electricity:Zone:LOBBY_33 [J]
Zone,Meter,InteriorLights:Electricity:Zone:LOBBY_33 [J]
Zone,Meter,General:InteriorLights:Electricity:Zone:LOBBY_33 [J]
Zone,Meter,Electricity:Zone:CONFERENCE_33 [J]
Zone,Meter,InteriorLights:Electricity:Zone:CONFERENCE_33 [J]
Zone,Meter,General:InteriorLights:Electricity:Zone:CONFERENCE_33 [J]
Zone,Meter,Electricity:Zone:BREAK_ROOM_33 [J]
Zone,Meter,InteriorLights:Electricity:Zone:BREAK_ROOM_33 [J]
Zone,Meter,General:InteriorLights:Electricity:Zone:BREAK_ROOM_33 [J]
Zone,Meter,Electricity:Zone:MECHANICAL_33 [J]
Zone,Meter,InteriorLights:Electricity:Zone:MECHANICAL_33 [J]
Zone,Meter,General:InteriorLights:Electricity:Zone:MECHANICAL_33 [J]
Zone,Meter,Electricity:Zone:OFFICE_OPEN_33 [J]
Zone,Meter,InteriorLights:Electricity:Zone:OFFICE_OPEN_33 [J]
Zone,Meter,General:InteriorLights:Electricity:Zone:OFFICE_OPEN_33 [J]
Zone,Meter,Electricity:Zone:OFFICE_PRIVATE_33 [J]
Zone,Meter,InteriorLights:Electricity:Zone:OFFICE_PRIVATE_33 [J]
Zone,Meter,General:InteriorLights:Electricity:Zone:OFFICE_PRIVATE_33 [J]
Zone,Meter,Electricity:Zone:STORAGE_33 [J]
Zone,Meter,InteriorLights:Electricity:Zone:STORAGE_33 [J]
Zone,Meter,General:InteriorLights:Electricity:Zone:STORAGE_33 [J]
Zone,Meter,Electricity:Zone:LOBBY_34 [J]
Zone,Meter,InteriorLights:Electricity:Zone:LOBBY_34 [J]
Zone,Meter,General:InteriorLights:Electricity:Zone:LOBBY_34 [J]
Zone,Meter,Electricity:Zone:BREAK_ROOM_34 [J]
Zone,Meter,InteriorLights:Electricity:Zone:BREAK_ROOM_34 [J]
Zone,Meter,General:InteriorLights:Electricity:Zone:BREAK_ROOM_34 [J]
Zone,Meter,Electricity:Zone:MECHANICAL_34 [J]
Zone,Meter,InteriorLights:Electricity:Zone:MECHANICAL_34 [J]
Zone,Meter,General:InteriorLights:Electricity:Zone:MECHANICAL_34 [J]
Zone,Meter,Electricity:Zone:OFFICE_OPEN_34 [J]
Zone,Meter,InteriorLights:Electricity:Zone:OFFICE_OPEN_34 [J]
Zone,Meter,General:InteriorLights:Electricity:Zone:OFFICE_OPEN_34 [J]
Zone,Meter,Electricity:Zone:OFFICE_PRIVATE_34 [J]
Zone,Meter,InteriorLights:Electricity:Zone:OFFICE_PRIVATE_34 [J]
Zone,Meter,General:InteriorLights:Electricity:Zone:OFFICE_PRIVATE_34 [J]
Zone,Meter,Electricity:Zone:STORAGE_34 [J]
Zone,Meter,InteriorLights:Electricity:Zone:STORAGE_34 [J]
Zone,Meter,General:InteriorLights:Electricity:Zone:STORAGE_34 [J]
Zone,Meter,Electricity:Zone:LOBBY_35 [J]
Zone,Meter,InteriorLights:Electricity:Zone:LOBBY_35 [J]
Zone,Meter,General:InteriorLights:Electricity:Zone:LOBBY_35 [J]
Zone,Meter,Electricity:Zone:BREAK_ROOM_35 [J]
Zone,Meter,InteriorLights:Electricity:Zone:BREAK_ROOM_35 [J]
Zone,Meter,General:InteriorLights:Electricity:Zone:BREAK_ROOM_35 [J]
Zone,Meter,Electricity:Zone:MECHANICAL_35 [J]
Zone,Meter,InteriorLights:Electricity:Zone:MECHANICAL_35 [J]
Zone,Meter,General:InteriorLights:Electricity:Zone:MECHANICAL_35 [J]
Zone,Meter,Electricity:Zone:OFFICE_OPEN_35 [J]
Zone,Meter,InteriorLights:Electricity:Zone:OFFICE_OPEN_35 [J]
Zone,Meter,General:InteriorLights:Electricity:Zone:OFFICE_OPEN_35 [J]
Zone,Meter,Electricity:Zone:OFFICE_PRIVATE_35 [J]
Zone,Meter,InteriorLights:Electricity:Zone:OFFICE_PRIVATE_35 [J]
Zone,Meter,General:InteriorLights:Electricity:Zone:OFFICE_PRIVATE_35 [J]
Zone,Meter,Electricity:Zone:STORAGE_35 [J]
Zone,Meter,InteriorLights:Electricity:Zone:STORAGE_35 [J]
Zone,Meter,General:InteriorLights:Electricity:Zone:STORAGE_35 [J]
Zone,Meter,Electricity:Zone:LOBBY_36 [J]
Zone,Meter,InteriorLights:Electricity:Zone:LOBBY_36 [J]
Zone,Meter,General:InteriorLights:Electricity:Zone:LOBBY_36 [J]
Zone,Meter,Electricity:Zone:CONFERENCE_36 [J]
Zone,Meter,InteriorLights:Electricity:Zone:CONFERENCE_36 [J]
Zone,Meter,General:InteriorLights:Electricity:Zone:CONFERENCE_36 [J]
Zone,Meter,Electricity:Zone:BREAK_ROOM_36 [J]
Zone,Meter,InteriorLights:Electricity:Zone:BREAK_ROOM_36 [J]
Zone,Meter,General:InteriorLights:Electricity:Zone:BREAK_ROOM_36 [J]
Zone,Meter,Electricity:Zone:MECHANICAL_36 [J]
Zone,Meter,InteriorLights:Electricity:Zone:MECHANICAL_36 [J]
Zone,Meter,General:InteriorLights:Electricity:Zone:MECHANICAL_36 [J]
Zone,Meter,Electricity:Zone:OFFICE_OPEN_36 [J]
Zone,Meter,InteriorLights:Electricity:Zone:OFFICE_OPEN_36 [J]
Zone,Meter,General:InteriorLights:Electricity:Zone:OFFICE_OPEN_36 [J]
Zone,Meter,Electricity:Zone:OFFICE_PRIVATE_36 [J]
Zone,Meter,InteriorLights:Electricity:Zone:OFFICE_PRIVATE_36 [J]
Zone,Meter,General:InteriorLights:Electricity:Zone:OFFICE_PRIVATE_36 [J]
Zone,Meter,Electricity:Zone:STORAGE_36 [J]
Zone,Meter,InteriorLights:Electricity:Zone:STORAGE_36 [J]
Zone,Meter,General:InteriorLights:Electricity:Zone:STORAGE_36 [J]
Zone,Meter,Electricity:Zone:LOBBY_37 [J]
Zone,Meter,InteriorLights:Electricity:Zone:LOBBY_37 [J]
Zone,Meter,General:InteriorLights:Electricity:Zone:LOBBY_37 [J]
Zone,Meter,Electricity:Zone:CONFERENCE_37 [J]
Zone,Meter,InteriorLights:Electricity:Zone:CONFERENCE_37 [J]
Zone,Meter,General:InteriorLights:Electricity:Zone:CONFERENCE_37 [J]
Zone,Meter,Electricity:Zone:BREAK_ROOM_37 [J]
Zone,Meter,InteriorLights:Electricity:Zone:BREAK_ROOM_37 [J]
Zone,Meter,General:InteriorLights:Electricity:Zone:BREAK_ROOM_37 [J]
Zone,Meter,Electricity:Zone:MECHANICAL_37 [J]
Zone,Meter,InteriorLights:Electricity:Zone:MECHANICAL_37 [J]
Zone,Meter,General:InteriorLights:Electricity:Zone:MECHANICAL_37 [J]
Zone,Meter,Electricity:Zone:OFFICE_PRIVATE_37 [J]
Zone,Meter,InteriorLights:Electricity:Zone:OFFICE_PRIVATE_37 [J]
Zone,Meter,General:InteriorLights:Electricity:Zone:OFFICE_PRIVATE_37 [J]
Zone,Meter,Electricity:Zone:STORAGE_37 [J]
Zone,Meter,InteriorLights:Electricity:Zone:STORAGE_37 [J]
Zone,Meter,General:InteriorLights:Electricity:Zone:STORAGE_37 [J]
Zone,Meter,Electricity:Zone:LOBBY_38 [J]
Zone,Meter,InteriorLights:Electricity:Zone:LOBBY_38 [J]
Zone,Meter,General:InteriorLights:Electricity:Zone:LOBBY_38 [J]
Zone,Meter,Electricity:Zone:CONFERENCE_38 [J]
Zone,Meter,InteriorLights:Electricity:Zone:CONFERENCE_38 [J]
Zone,Meter,General:InteriorLights:Electricity:Zone:CONFERENCE_38 [J]
Zone,Meter,Electricity:Zone:BREAK_ROOM_38 [J]
Zone,Meter,InteriorLights:Electricity:Zone:BREAK_ROOM_38 [J]
Zone,Meter,General:InteriorLights:Electricity:Zone:BREAK_ROOM_38 [J]
Zone,Meter,Electricity:Zone:MECHANICAL_38 [J]
Zone,Meter,InteriorLights:Electricity:Zone:MECHANICAL_38 [J]
Zone,Meter,General:InteriorLights:Electricity:Zone:MECHANICAL_38 [J]
Zone,Meter,Electricity:Zone:OFFICE_PRIVATE_38 [J]
Zone,Meter,InteriorLights:Electricity:Zone:OFFICE_PRIVATE_38 [J]
Zone,Meter,General:InteriorLights:Electricity:Zone:OFFICE_PRIVATE_38 [J]
Zone,Meter,Electricity:Zone:LOBBY_39 [J]
Zone,Meter,InteriorLights:Electricity:Zone:LOBBY_39 [J]
Zone,Meter,General:InteriorLights:Electricity:Zone:LOBBY_39 [J]
Zone,Meter,Electricity:Zone:CONFERENCE_39 [J]
Zone,Meter,InteriorLights:Electricity:Zone:CONFERENCE_39 [J]
Zone,Meter,General:InteriorLights:Electricity:Zone:CONFERENCE_39 [J]
Zone,Meter,Electricity:Zone:BREAK_ROOM_39 [J]
Zone,Meter,InteriorLights:Electricity:Zone:BREAK_ROOM_39 [J]
Zone,Meter,General:InteriorLights:Electricity:Zone:BREAK_ROOM_39 [J]
Zone,Meter,Electricity:Zone:MECHANICAL_39 [J]
Zone,Meter,InteriorLights:Electricity:Zone:MECHANICAL_39 [J]
Zone,Meter,General:InteriorLights:Electricity:Zone:MECHANICAL_39 [J]
Zone,Meter,Electricity:Zone:OFFICE_OPEN_39 [J]
Zone,Meter,InteriorLights:Electricity:Zone:OFFICE_OPEN_39 [J]
Zone,Meter,General:InteriorLights:Electricity:Zone:OFFICE_OPEN_39 [J]
Zone,Meter,Electricity:Zone:OFFICE_PRIVATE_39 [J]
Zone,Meter,InteriorLights:Electricity:Zone:OFFICE_PRIVATE_39 [J]
Zone,Meter,General:InteriorLights:Electricity:Zone:OFFICE_PRIVATE_39 [J]
Zone,Meter,Electricity:Zone:STORAGE_39 [J]
Zone,Meter,InteriorLights:Electricity:Zone:STORAGE_39 [J]
Zone,Meter,General:InteriorLights:Electricity:Zone:STORAGE_39 [J]
Zone,Meter,Electricity:Zone:LOBBY_40 [J]
Zone,Meter,InteriorLights:Electricity:Zone:LOBBY_40 [J]
Zone,Meter,General:InteriorLights:Electricity:Zone:LOBBY_40 [J]
Zone,Meter,Electricity:Zone:CONFERENCE_40 [J]
Zone,Meter,InteriorLights:Electricity:Zone:CONFERENCE_40 [J]
Zone,Meter,General:InteriorLights:Electricity:Zone:CONFERENCE_40 [J]
Zone,Meter,Electricity:Zone:BREAK_ROOM_40 [J]
Zone,Meter,InteriorLights:Electricity:Zone:BREAK_ROOM_40 [J]
Zone,Meter,General:InteriorLights:Electricity:Zone:BREAK_ROOM_40 [J]
Zone,Meter,Electricity:Zone:MECHANICAL_40 [J]
Zone,Meter,InteriorLights:Electricity:Zone:MECHANICAL_40 [J]
Zone,Meter,General:InteriorLights:Electricity:Zone:MECHANICAL_40 [J]
Zone,Meter,Electricity:Zone:OFFICE_OPEN_40 [J]
Zone,Meter,InteriorLights:Electricity:Zone:OFFICE_OPEN_40 [J]
Zone,Meter,General:InteriorLights:Electricity:Zone:OFFICE_OPEN_40 [J]
Zone,Meter,Electricity:Zone:OFFICE_PRIVATE_40 [J]
Zone,Meter,InteriorLights:Electricity:Zone:OFFICE_PRIVATE_40 [J]
Zone,Meter,General:InteriorLights:Electricity:Zone:OFFICE_PRIVATE_40 [J]
Zone,Meter,InteriorEquipment:Electricity [J]
Zone,Meter,InteriorEquipment:Electricity:Zone:CONFERENCE_0 [J]
Zone,Meter,InteriorEquipment:Electricity:SpaceType:GENERAL [J]
Zone,Meter,General:InteriorEquipment:Electricity [J]
Zone,Meter,General:InteriorEquipment:Electricity:Zone:CONFERENCE_0 [J]
Zone,Meter,General:InteriorEquipment:Electricity:SpaceType:GENERAL [J]
Zone,Meter,InteriorEquipment:Electricity:Zone:BREAK_ROOM_0 [J]
Zone,Meter,General:InteriorEquipment:Electricity:Zone:BREAK_ROOM_0 [J]
Zone,Meter,InteriorEquipment:Electricity:Zone:MECHANICAL_0 [J]
Zone,Meter,General:InteriorEquipment:Electricity:Zone:MECHANICAL_0 [J]
Zone,Meter,InteriorEquipment:Electricity:Zone:OFFICE_OPEN_0 [J]
Zone,Meter,General:InteriorEquipment:Electricity:Zone:OFFICE_OPEN_0 [J]
Zone,Meter,InteriorEquipment:Electricity:Zone:OFFICE_PRIVATE_0 [J]
Zone,Meter,General:InteriorEquipment:Electricity:Zone:OFFICE_PRIVATE_0 [J]
Zone,Meter,InteriorEquipment:Electricity:Zone:STORAGE_0 [J]
Zone,Meter,General:InteriorEquipment:Electricity:Zone:STORAGE_0 [J]
Zone,Meter,InteriorEquipment:Electricity:Zone:LOBBY_1 [J]
Zone,Meter,General:InteriorEquipment:Electricity:Zone:LOBBY_1 [J]
Zone,Meter,InteriorEquipment:Electricity:Zone:CONFERENCE_1 [J]
Zone,Meter,General:InteriorEquipment:Electricity:Zone:CONFERENCE_1 [J]
Zone,Meter,InteriorEquipment:Electricity:Zone:BREAK_ROOM_1 [J]
Zone,Meter,General:InteriorEquipment:Electricity:Zone:BREAK_ROOM_1 [J]
Zone,Meter,InteriorEquipment:Electricity:Zone:MECHANICAL_1 [J]
Zone,Meter,General:InteriorEquipment:Electricity:Zone:MECHANICAL_1 [J]
Zone,Meter,InteriorEquipment:Electricity:Zone:OFFICE_OPEN_1 [J]
Zone,Meter,General:InteriorEquipment:Electricity:Zone:OFFICE_OPEN_1 [J]
Zone,Meter,InteriorEquipment:Electricity:Zone:OFFICE_PRIVATE_1 [J]
Zone,Meter,General:InteriorEquipment:Electricity:Zone:OFFICE_PRIVATE_1 [J]
Zone,Meter,InteriorEquipment:Electricity:Zone:STORAGE_1 [J]
Zone,Meter,General:InteriorEquipment:Electricity:Zone:STORAGE_1 [J]
Zone,Meter,InteriorEquipment:Electricity:Zone:LOBBY_2 [J]
Zone,Meter,General:InteriorEquipment:Electricity:Zone:LOBBY_2 [J]
Zone,Meter,InteriorEquipment:Electricity:Zone:CONFERENCE_2 [J]
Zone,Meter,General:InteriorEquipment:Electricity:Zone:CONFERENCE_2 [J]
Zone,Meter,InteriorEquipment:Electricity:Zone:BREAK_ROOM_2 [J]
Zone,Meter,General:InteriorEquipment:Electricity:Zone:BREAK_ROOM_2 [J]
Zone,Meter,InteriorEquipment:Electricity:Zone:OFFICE_OPEN_2 [J]
Zone,Meter,General:InteriorEquipment:Electricity:Zone:OFFICE_OPEN_2 [J]
Zone,Meter,InteriorEquipment:Electricity:Zone:OFFICE_PRIVATE_2 [J]
Zone,Meter,General:InteriorEquipment:Electricity:Zone:OFFICE_PRIVATE_2 [J]
Zone,Meter,InteriorEquipment:Electricity:Zone:STORAGE_2 [J]
Zone,Meter,General:InteriorEquipment:Electricity:Zone:STORAGE_2 [J]
Zone,Meter,InteriorEquipment:Electricity:Zone:LOBBY_3 [J]
Zone,Meter,General:InteriorEquipment:Electricity:Zone:LOBBY_3 [J]
Zone,Meter,InteriorEquipment:Electricity:Zone:CONFERENCE_3 [J]
Zone,Meter,General:InteriorEquipment:Electricity:Zone:CONFERENCE_3 [J]
Zone,Meter,InteriorEquipment:Electricity:Zone:BREAK_ROOM_3 [J]
Zone,Meter,General:InteriorEquipment:Electricity:Zone:BREAK_ROOM_3 [J]
Zone,Meter,InteriorEquipment:Electricity:Zone:OFFICE_OPEN_3 [J]
Zone,Meter,General:InteriorEquipment:Electricity:Zone:OFFICE_OPEN_3 [J]
Zone,Meter,InteriorEquipment:Electricity:Zone:OFFICE_PRIVATE_3 [J]
Zone,Meter,General:InteriorEquipment:Electricity:Zone:OFFICE_PRIVATE_3 [J]
Zone,Meter,InteriorEquipment:Electricity:Zone:LOBBY_4 [J]
Zone,Meter,General:InteriorEquipment:Electricity:Zone:LOBBY_4 [J]
Zone,Meter,InteriorEquipment:Electricity:Zone:CONFERENCE_4 [J]
Zone,Meter,General:InteriorEquipment:Electricity:Zone:CONFERENCE_4 [J]
Zone,Meter,InteriorEquipment:Electricity:Zone:BREAK_ROOM_4 [J]
Zone,Meter,General:InteriorEquipment:Electricity:Zone:BREAK_ROOM_4 [J]
Zone,Meter,InteriorEquipment:Electricity:Zone:MECHANICAL_4 [J]
Zone,Meter,General:InteriorEquipment:Electricity:Zone:MECHANICAL_4 [J]
Zone,Meter,InteriorEquipment:Electricity:Zone:OFFICE_OPEN_4 [J]
Zone,Meter,General:InteriorEquipment:Electricity:Zone:OFFICE_OPEN_4 [J]
Zone,Meter,InteriorEquipment:Electricity:Zone:OFFICE_PRIVATE_4 [J]
Zone,Meter,General:InteriorEquipment:Electricity:Zone:OFFICE_PRIVATE_4 [J]
Zone,Meter,InteriorEquipment:Electricity:Zone:STORAGE_4 [J]
Zone,Meter,General:InteriorEquipment:Electricity:Zone:STORAGE_4 [J]
Zone,Meter,InteriorEquipment:Electricity:Zone:LOBBY_5 [J]
Zone,Meter,General:InteriorEquipment:Electricity:Zone:LOBBY_5 [J]
Zone,Meter,InteriorEquipment:Electricity:Zone:CONFERENCE_5 [J]
Zone,Meter,General:InteriorEquipment:Electricity:Zone:CONFERENCE_5 [J]
Zone,Meter,InteriorEquipment:Electricity:Zone:BREAK_ROOM_5 [J]
Zone,Meter,General:InteriorEquipment:Electricity:Zone:BREAK_ROOM_5 [J]
Zone,Meter,InteriorEquipment:Electricity:Zone:MECHANICAL_5 [J]
Zone,Meter,General:InteriorEquipment:Electricity:Zone:MECHANICAL_5 [J]
Zone,Meter,InteriorEquipment:Electricity:Zone:OFFICE_OPEN_5 [J]
Zone,Meter,General:InteriorEquipment:Electricity:Zone:OFFICE_OPEN_5 [J]
Zone,Meter,InteriorEquipment:Electricity:Zone:OFFICE_PRIVATE_5 [J]
Zone,Meter,General:InteriorEquipment:Electricity:Zone:OFFICE_PRIVATE_5 [J]
Zone,Meter,InteriorEquipment:Electricity:Zone:STORAGE_5 [J]
Zone,Meter,General:InteriorEquipment:Electricity:Zone:STORAGE_5 [J]
Zone,Meter,InteriorEquipment:Electricity:Zone:CONFERENCE_6 [J]
Zone,Meter,General:InteriorEquipment:Electricity:Zone:CONFERENCE_6 [J]
Zone,Meter,InteriorEquipment:Electricity:Zone:BREAK_ROOM_6 [J]
Zone,Meter,General:InteriorEquipment:Electricity:Zone:BREAK_ROOM_6 [J]
Zone,Meter,InteriorEquipment:Electricity:Zone:OFFICE_OPEN_6 [J]
Zone,Meter,General:InteriorEquipment:Electricity:Zone:OFFICE_OPEN_6 [J]
Zone,Meter,InteriorEquipment:Electricity:Zone:OFFICE_PRIVATE_6 [J]
Zone,Meter,General:InteriorEquipment:Electricity:Zone:OFFICE_PRIVATE_6 [J]
Zone,Meter,InteriorEquipment:Electricity:Zone:STORAGE_6 [J]
Zone,Meter,General:InteriorEquipment:Electricity:Zone:STORAGE_6 [J]
Zone,Meter,InteriorEquipment:Electricity:Zone:LOBBY_7 [J]
Zone,Meter,General:InteriorEquipment:Electricity:Zone:LOBBY_7 [J]
Zone,Meter,InteriorEquipment:Electricity:Zone:CONFERENCE_7 [J]
Zone,Meter,General:InteriorEquipment:Electricity:Zone:CONFERENCE_7 [J]
Zone,Meter,InteriorEquipment:Electricity:Zone:BREAK_ROOM_7 [J]
Zone,Meter,General:InteriorEquipment:Electricity:Zone:BREAK_ROOM_7 [J]
Zone,Meter,InteriorEquipment:Electricity:Zone:MECHANICAL_7 [J]
Zone,Meter,General:InteriorEquipment:Electricity:Zone:MECHANICAL_7 [J]
Zone,Meter,InteriorEquipment:Electricity:Zone:OFFICE_OPEN_7 [J]
Zone,Meter,General:InteriorEquipment:Electricity:Zone:OFFICE_OPEN_7 [J]
Zone,Meter,InteriorEquipment:Electricity:Zone:OFFICE_PRIVATE_7 [J]
Zone,Meter,General:InteriorEquipment:Electricity:Zone:OFFICE_PRIVATE_7 [J]
Zone,Meter,InteriorEquipment:Electricity:Zone:STORAGE_7 [J]
Zone,Meter,General:InteriorEquipment:Electricity:Zone:STORAGE_7 [J]
Zone,Meter,InteriorEquipment:Electricity:Zone:LOBBY_8 [J]
Zone,Meter,General:InteriorEquipment:Electricity:Zone:LOBBY_8 [J]
Zone,Meter,InteriorEquipment:Electricity:Zone:CONFERENCE_8 [J]
Zone,Meter,General:InteriorEquipment:Electricity:Zone:CONFERENCE_8 [J]
Zone,Meter,InteriorEquipment:Electricity:Zone:BREAK_ROOM_8 [J]
Zone,Meter,General:InteriorEquipment:Electricity:Zone:BREAK_ROOM_8 [J]
Zone,Meter,InteriorEquipment:Electricity:Zone:MECHANICAL_8 [J]
Zone,Meter,General:InteriorEquipment:Electricity:Zone:MECHANICAL_8 [J]
Zone,Meter,InteriorEquipment:Electricity:Zone:OFFICE_OPEN_8 [J]
Zone,Meter,General:InteriorEquipment:Electricity:Zone:OFFICE_OPEN_8 [J]
Zone,Meter,InteriorEquipment:Electricity:Zone:STORAGE_8 [J]
Zone,Meter,General:InteriorEquipment:Electricity:Zone:STORAGE_8 [J]
Zone,Meter,InteriorEquipment:Electricity:Zone:LOBBY_9 [J]
Zone,Meter,General:InteriorEquipment:Electricity:Zone:LOBBY_9 [J]
Zone,Meter,InteriorEquipment:Electricity:Zone:CONFERENCE_9 [J]
Zone,Meter,General:InteriorEquipment:Electricity:Zone:CONFERENCE_9 [J]
Zone,Meter,InteriorEquipment:Electricity:Zone:BREAK_ROOM_9 [J]
Zone,Meter,General:InteriorEquipment:Electricity:Zone:BREAK_ROOM_9 [J]
Zone,Meter,InteriorEquipment:Electricity:Zone:MECHANICAL_9 [J]
Zone,Meter,General:InteriorEquipment:Electricity:Zone:MECHANICAL_9 [J]
Zone,Meter,InteriorEquipment:Electricity:Zone:OFFICE_OPEN_9 [J]
Zone,Meter,General:InteriorEquipment:Electricity:Zone:OFFICE_OPEN_9 [J]
Zone,Meter,InteriorEquipment:Electricity:Zone:STORAGE_9 [J]
Zone,Meter,General:InteriorEquipment:Electricity:Zone:STORAGE_9 [J]
Zone,Meter,InteriorEquipment:Electricity:Zone:LOBBY_10 [J]
Zone,Meter,General:InteriorEquipment:Electricity:Zone:LOBBY_10 [J]
Zone,Meter,InteriorEquipment:Electricity:Zone:CONFERENCE_10 [J]
Zone,Meter,General:InteriorEquipment:Electricity:Zone:CONFERENCE_10 [J]
Zone,Meter,InteriorEquipment:Electricity:Zone:BREAK_ROOM_10 [J]
Zone,Meter,General:InteriorEquipment:Electricity:Zone:BREAK_ROOM_10 [J]
Zone,Meter,InteriorEquipment:Electricity:Zone:MECHANICAL_10 [J]
Zone,Meter,General:InteriorEquipment:Electricity:Zone:MECHANICAL_10 [J]
Zone,Meter,InteriorEquipment:Electricity:Zone:OFFICE_OPEN_10 [J]
Zone,Meter,General:InteriorEquipment:Electricity:Zone:OFFICE_OPEN_10 [J]
Zone,Meter,InteriorEquipment:Electricity:Zone:OFFICE_PRIVATE_10 [J]
Zone,Meter,General:InteriorEquipment:Electricity:Zone:OFFICE_PRIVATE_10 [J]
Zone,Meter,InteriorEquipment:Electricity:Zone:STORAGE_10 [J]
Zone,Meter,General:InteriorEquipment:Electricity:Zone:STORAGE_10 [J]
Zone,Meter,InteriorEquipment:Electricity:Zone:LOBBY_11 [J]
Zone,Meter,General:InteriorEquipment:Electricity:Zone:LOBBY_11 [J]
Zone,Meter,InteriorEquipment:Electricity:Zone:CONFERENCE_11 [J]
Zone,Meter,General:InteriorEquipment:Electricity:Zone:CONFERENCE_11 [J]
Zone,Meter,InteriorEquipment:Electricity:Zone:BREAK_ROOM_11 [J]
Zone,Meter,General:InteriorEquipment:Electricity:Zone:BREAK_ROOM_11 [J]
Zone,Meter,InteriorEquipment:Electricity:Zone:MECHANICAL_11 [J]
Zone,Meter,General:InteriorEquipment:Electricity:Zone:MECHANICAL_11 [J]
Zone,Meter,InteriorEquipment:Electricity:Zone:OFFICE_OPEN_11 [J]
Zone,Meter,General:InteriorEquipment:Electricity:Zone:OFFICE_OPEN_11 [J]
Zone,Meter,InteriorEquipment:Electricity:Zone:OFFICE_PRIVATE_11 [J]
Zone,Meter,General:InteriorEquipment:Electricity:Zone:OFFICE_PRIVATE_11 [J]
Zone,Meter,InteriorEquipment:Electricity:Zone:STORAGE_11 [J]
Zone,Meter,General:InteriorEquipment:Electricity:Zone:STORAGE_11 [J]
Zone,Meter,InteriorEquipment:Electricity:Zone:LOBBY_12 [J]
Zone,Meter,General:InteriorEquipment:Electricity:Zone:LOBBY_12 [J]
Zone,Meter,InteriorEquipment:Electricity:Zone:CONFERENCE_12 [J]
Zone,Meter,General:InteriorEquipment:Electricity:Zone:CONFERENCE_12 [J]
Zone,Meter,InteriorEquipment:Electricity:Zone:BREAK_ROOM_12 [J]
Zone,Meter,General:InteriorEquipment:Electricity:Zone:BREAK_ROOM_12 [J]
Zone,Meter,InteriorEquipment:Electricity:Zone:OFFICE_OPEN_12 [J]
Zone,Meter,General:InteriorEquipment:Electricity:Zone:OFFICE_OPEN_12 [J]
Zone,Meter,InteriorEquipment:Electricity:Zone:OFFICE_PRIVATE_12 [J]
Zone,Meter,General:InteriorEquipment:Electricity:Zone:OFFICE_PRIVATE_12 [J]
Zone,Meter,InteriorEquipment:Electricity:Zone:STORAGE_12 [J]
Zone,Meter,General:InteriorEquipment:Electricity:Zone:STORAGE_12 [J]
Zone,Meter,InteriorEquipment:Electricity:Zone:LOBBY_13 [J]
Zone,Meter,General:InteriorEquipment:Electricity:Zone:LOBBY_13 [J]
Zone,Meter,InteriorEquipment:Electricity:Zone:CONFERENCE_13 [J]
Zone,Meter,General:InteriorEquipment:Electricity:Zone:CONFERENCE_13 [J]
Zone,Meter,InteriorEquipment:Electricity:Zone:BREAK_ROOM_13 [J]
Zone,Meter,General:InteriorEquipment:Electricity:Zone:BREAK_ROOM_13 [J]
Zone,Meter,InteriorEquipment:Electricity:Zone:MECHANICAL_13 [J]
Zone,Meter,General:InteriorEquipment:Electricity:Zone:MECHANICAL_13 [J]
Zone,Meter,InteriorEquipment:Electricity:Zone:OFFICE_OPEN_13 [J]
Zone,Meter,General:InteriorEquipment:Electricity:Zone:OFFICE_OPEN_13 [J]
Zone,Meter,InteriorEquipment:Electricity:Zone:OFFICE_PRIVATE_13 [J]
Zone,Meter,General:InteriorEquipment:Electricity:Zone:OFFICE_PRIVATE_13 [J]
Zone,Meter,InteriorEquipment:Electricity:Zone:LOBBY_14 [J]
Zone,Meter,General:InteriorEquipment:Electricity:Zone:LOBBY_14 [J]
Zone,Meter,InteriorEquipment:Electricity:Zone:CONFERENCE_14 [J]
Zone,Meter,General:InteriorEquipment:Electricity:Zone:CONFERENCE_14 [J]
Zone,Meter,InteriorEquipment:Electricity:Zone:BREAK_ROOM_14 [J]
Zone,Meter,General:InteriorEquipment:Electricity:Zone:BREAK_ROOM_14 [J]
Zone,Meter,InteriorEquipment:Electricity:Zone:MECHANICAL_14 [J]
Zone,Meter,General:InteriorEquipment:Electricity:Zone:MECHANICAL_14 [J]
Zone,Meter,InteriorEquipment:Electricity:Zone:OFFICE_PRIVATE_14 [J]
Zone,Meter,General:InteriorEquipment:Electricity:Zone:OFFICE_PRIVATE_14 [J]
Zone,Meter,InteriorEquipment:Electricity:Zone:STORAGE_14 [J]
Zone,Meter,General:InteriorEquipment:Electricity:Zone:STORAGE_14 [J]
Zone,Meter,InteriorEquipment:Electricity:Zone:LOBBY_15 [J]
Zone,Meter,General:InteriorEquipment:Electricity:Zone:LOBBY_15 [J]
Zone,Meter,InteriorEquipment:Electricity:Zone:CONFERENCE_15 [J]
Zone,Meter,General:InteriorEquipment:Electricity:Zone:CONFERENCE_15 [J]
Zone,Meter,InteriorEquipment:Electricity:Zone:BREAK_ROOM_15 [J]
Zone,Meter,General:InteriorEquipment:Electricity:Zone:BREAK_ROOM_15 [J]
Zone,Meter,InteriorEquipment:Electricity:Zone:MECHANICAL_15 [J]
Zone,Meter,General:InteriorEquipment:Electricity:Zone:MECHANICAL_15 [J]
Zone,Meter,InteriorEquipment:Electricity:Zone:OFFICE_OPEN_15 [J]
Zone,Meter,General:InteriorEquipment:Electricity:Zone:OFFICE_OPEN_15 [J]
Zone,Meter,InteriorEquipment:Electricity:Zone:OFFICE_PRIVATE_15 [J]
Zone,Meter,General:InteriorEquipment:Electricity:Zone:OFFICE_PRIVATE_15 [J]
Zone,Meter,InteriorEquipment:Electricity:Zone:STORAGE_15 [J]
Zone,Meter,General:InteriorEquipment:Electricity:Zone:STORAGE_15 [J]
Zone,Meter,InteriorEquipment:Electricity:Zone:LOBBY_16 [J]
Zone,Meter,General:InteriorEquipment:Electricity:Zone:LOBBY_16 [J]
Zone,Meter,InteriorEquipment:Electricity:Zone:CONFERENCE_16 [J]
Zone,Meter,General:InteriorEquipment:Electricity:Zone:CONFERENCE_16 [J]
Zone,Meter,InteriorEquipment:Electricity:Zone:BREAK_ROOM_16 [J]
Zone,Meter,General:InteriorEquipment:Electricity:Zone:BREAK_ROOM_16 [J]
Zone,Meter,InteriorEquipment:Electricity:Zone:MECHANICAL_16 [J]
Zone,Meter,General:InteriorEquipment:Electricity:Zone:MECHANICAL_16 [J]
Zone,Meter,InteriorEquipment:Electricity:Zone:OFFICE_OPEN_16 [J]
Zone,Meter,General:InteriorEquipment:Electricity:Zone:OFFICE_OPEN_16 [J]
Zone,Meter,InteriorEquipment:Electricity:Zone:OFFICE_PRIVATE_16 [J]
Zone,Meter,General:InteriorEquipment:Electricity:Zone:OFFICE_PRIVATE_16 [J]
Zone,Meter,InteriorEquipment:Electricity:Zone:STORAGE_16 [J]
Zone,Meter,General:InteriorEquipment:Electricity:Zone:STORAGE_16 [J]
Zone,Meter,InteriorEquipment:Electricity:Zone:LOBBY_17 [J]
Zone,Meter,General:InteriorEquipment:Electricity:Zone:LOBBY_17 [J]
Zone,Meter,InteriorEquipment:Electricity:Zone:CONFERENCE_17 [J]
Zone,Meter,General:InteriorEquipment:Electricity:Zone:CONFERENCE_17 [J]
Zone,Meter,InteriorEquipment:Electricity:Zone:BREAK_ROOM_17 [J]
Zone,Meter,General:InteriorEquipment:Electricity:Zone:BREAK_ROOM_17 [J]
Zone,Meter,InteriorEquipment:Electricity:Zone:OFFICE_OPEN_17 [J]
Zone,Meter,General:InteriorEquipment:Electricity:Zone:OFFICE_OPEN_17 [J]
Zone,Meter,InteriorEquipment:Electricity:Zone:OFFICE_PRIVATE_17 [J]
Zone,Meter,General:InteriorEquipment:Electricity:Zone:OFFICE_PRIVATE_17 [J]
Zone,Meter,InteriorEquipment:Electricity:Zone:STORAGE_17 [J]
Zone,Meter,General:InteriorEquipment:Electricity:Zone:STORAGE_17 [J]
Zone,Meter,InteriorEquipment:Electricity:Zone:LOBBY_18 [J]
Zone,Meter,General:InteriorEquipment:Electricity:Zone:LOBBY_18 [J]
Zone,Meter,InteriorEquipment:Electricity:Zone:CONFERENCE_18 [J]
Zone,Meter,General:InteriorEquipment:Electricity:Zone:CONFERENCE_18 [J]
Zone,Meter,InteriorEquipment:Electricity:Zone:BREAK_ROOM_18 [J]
Zone,Meter,General:InteriorEquipment:Electricity:Zone:BREAK_ROOM_18 [J]
Zone,Meter,InteriorEquipment:Electricity:Zone:MECHANICAL_18 [J]
Zone,Meter,General:InteriorEquipment:Electricity:Zone:MECHANICAL_18 [J]
Zone,Meter,InteriorEquipment:Electricity:Zone:OFFICE_OPEN_18 [J]
Zone,Meter,General:InteriorEquipment:Electricity:Zone:OFFICE_OPEN_18 [J]
Zone,Meter,InteriorEquipment:Electricity:Zone:STORAGE_18 [J]
Zone,Meter,General:InteriorEquipment:Electricity:Zone:STORAGE_18 [J]
Zone,Meter,InteriorEquipment:Electricity:Zone:LOBBY_19 [J]
Zone,Meter,General:InteriorEquipment:Electricity:Zone:LOBBY_19 [J]
Zone,Meter,InteriorEquipment:Electricity:Zone:CONFERENCE_19 [J]
Zone,Meter,General:InteriorEquipment:Electricity:Zone:CONFERENCE_19 [J]
Zone,Meter,InteriorEquipment:Electricity:Zone:BREAK_ROOM_19 [J]
Zone,Meter,General:InteriorEquipment:Electricity:Zone:BREAK_ROOM_19 [J]
Zone,Meter,InteriorEquipment:Electricity:Zone:MECHANICAL_19 [J]
Zone,Meter,General:InteriorEquipment:Electricity:Zone:MECHANICAL_19 [J]
Zone,Meter,InteriorEquipment:Electricity:Zone:OFFICE_OPEN_19 [J]
Zone,Meter,General:InteriorEquipment:Electricity:Zone:OFFICE_OPEN_19 [J]
Zone,Meter,InteriorEquipment:Electricity:Zone:OFFICE_PRIVATE_19 [J]
Zone,Meter,General:InteriorEquipment:Electricity:Zone:OFFICE_PRIVATE_19 [J]
Zone,Meter,InteriorEquipment:Electricity:Zone:STORAGE_19 [J]
Zone,Meter,General:InteriorEquipment:Electricity:Zone:STORAGE_19 [J]
Zone,Meter,InteriorEquipment:Electricity:Zone:LOBBY_20 [J]
Zone,Meter,General:InteriorEquipment:Electricity:Zone:LOBBY_20 [J]
Zone,Meter,InteriorEquipment:Electricity:Zone:CONFERENCE_20 [J]
Zone,Meter,General:InteriorEquipment:Electricity:Zone:CONFERENCE_20 [J]
Zone,Meter,InteriorEquipment:Electricity:Zone:BREAK_ROOM_20 [J]
Zone,Meter,General:InteriorEquipment:Electricity:Zone:BREAK_ROOM_20 [J]
Zone,Meter,InteriorEquipment:Electricity:Zone:MECHANICAL_20 [J]
Zone,Meter,General:InteriorEquipment:Electricity:Zone:MECHANICAL_20 [J]
Zone,Meter,InteriorEquipment:Electricity:Zone:OFFICE_OPEN_20 [J]
Zone,Meter,General:InteriorEquipment:Electricity:Zone:OFFICE_OPEN_20 [J]
Zone,Meter,InteriorEquipment:Electricity:Zone:OFFICE_PRIVATE_20 [J]
Zone,Meter,General:InteriorEquipment:Electricity:Zone:OFFICE_PRIVATE_20 [J]
Zone,Meter,InteriorEquipment:Electricity:Zone:STORAGE_20 [J]
Zone,Meter,General:InteriorEquipment:Electricity:Zone:STORAGE_20 [J]
Zone,Meter,InteriorEquipment:Electricity:Zone:LOBBY_21 [J]
Zone,Meter,General:InteriorEquipment:Electricity:Zone:LOBBY_21 [J]
Zone,Meter,InteriorEquipment:Electricity:Zone:CONFERENCE_21 [J]
Zone,Meter,General:InteriorEquipment:Electricity:Zone:CONFERENCE_21 [J]
Zone,Meter,InteriorEquipment:Electricity:Zone:MECHANICAL_21 [J]
Zone,Meter,General:InteriorEquipment:Electricity:Zone:MECHANICAL_21 [J]
Zone,Meter,InteriorEquipment:Electricity:Zone:OFFICE_OPEN_21 [J]
Zone,Meter,General:InteriorEquipment:Electricity:Zone:OFFICE_OPEN_21 [J]
Zone,Meter,InteriorEquipment:Electricity:Zone:STORAGE_21 [J]
Zone,Meter,General:InteriorEquipment:Electricity:Zone:STORAGE_21 [J]
Zone,Meter,InteriorEquipment:Electricity:Zone:LOBBY_22 [J]
Zone,Meter,General:InteriorEquipment:Electricity:Zone:LOBBY_22 [J]
Zone,Meter,InteriorEquipment:Electricity:Zone:CONFERENCE_22 [J]
Zone,Meter,General:InteriorEquipment:Electricity:Zone:CONFERENCE_22 [J]
Zone,Meter,InteriorEquipment:Electricity:Zone:BREAK_ROOM_22 [J]
Zone,Meter,General:InteriorEquipment:Electricity:Zone:BREAK_ROOM_22 [J]
Zone,Meter,InteriorEquipment:Electricity:Zone:MECHANICAL_22 [J]
Zone,Meter,General:InteriorEquipment:Electricity:Zone:MECHANICAL_22 [J]
Zone,Meter,InteriorEquipment:Electricity:Zone:OFFICE_OPEN_22 [J]
Zone,Meter,General:InteriorEquipment:Electricity:Zone:OFFICE_OPEN_22 [J]
Zone,Meter,InteriorEquipment:Electricity:Zone:OFFICE_PRIVATE_22 [J]
Zone,Meter,General:InteriorEquipment:Electricity:Zone:OFFICE_PRIVATE_22 [J]
Zone,Meter,InteriorEquipment:Electricity:Zone:STORAGE_22 [J]
Zone,Meter,General:InteriorEquipment:Electricity:Zone:STORAGE_22 [J]
Zone,Meter,InteriorEquipment:Electricity:Zone:LOBBY_23 [J]
Zone,Meter,General:InteriorEquipment:Electricity:Zone:LOBBY_23 [J]
Zone,Meter,InteriorEquipment:Electricity:Zone:BREAK_ROOM_23 [J]
Zone,Meter,General:InteriorEquipment:Electricity:Zone:BREAK_ROOM_23 [J]
Zone,Meter,InteriorEquipment:Electricity:Zone:MECHANICAL_23 [J]
Zone,Meter,General:InteriorEquipment:Electricity:Zone:MECHANICAL_23 [J]
Zone,Meter,InteriorEquipment:Electricity:Zone:OFFICE_OPEN_23 [J]
Zone,Meter,General:InteriorEquipment:Electricity:Zone:OFFICE_OPEN_23 [J]
Zone,Meter,InteriorEquipment:Electricity:Zone:OFFICE_PRIVATE_23 [J]
Zone,Meter,General:InteriorEquipment:Electricity:Zone:OFFICE_PRIVATE_23 [J]
Zone,Meter,InteriorEquipment:Electricity:Zone:STORAGE_23 [J]
Zone,Meter,General:InteriorEquipment:Electricity:Zone:STORAGE_23 [J]
Zone,Meter,InteriorEquipment:Electricity:Zone:LOBBY_24 [J]
Zone,Meter,General:InteriorEquipment:Electricity:Zone:LOBBY_24 [J]
Zone,Meter,InteriorEquipment:Electricity:Zone:CONFERENCE_24 [J]
Zone,Meter,General:InteriorEquipment:Electricity:Zone:CONFERENCE_24 [J]
Zone,Meter,InteriorEquipment:Electricity:Zone:BREAK_ROOM_24 [J]
Zone,Meter,General:InteriorEquipment:Electricity:Zone:BREAK_ROOM_24 [J]
Zone,Meter,InteriorEquipment:Electricity:Zone:MECHANICAL_24 [J]
Zone,Meter,General:InteriorEquipment:Electricity:Zone:MECHANICAL_24 [J]
Zone,Meter,InteriorEquipment:Electricity:Zone:OFFICE_OPEN_24 [J]
Zone,Meter,General:InteriorEquipment:Electricity:Zone:OFFICE_OPEN_24 [J]
Zone,Meter,InteriorEquipment:Electricity:Zone:OFFICE_PRIVATE_24 [J]
Zone,Meter,General:InteriorEquipment:Electricity:Zone:OFFICE_PRIVATE_24 [J]
Zone,Meter,InteriorEquipment:Electricity:Zone:STORAGE_24 [J]
Zone,Meter,General:InteriorEquipment:Electricity:Zone:STORAGE_24 [J]
Zone,Meter,InteriorEquipment:Electricity:Zone:LOBBY_25 [J]
Zone,Meter,General:InteriorEquipment:Electricity:Zone:LOBBY_25 [J]
Zone,Meter,InteriorEquipment:Electricity:Zone:CONFERENCE_25 [J]
Zone,Meter,General:InteriorEquipment:Electricity:Zone:CONFERENCE_25 [J]
Zone,Meter,InteriorEquipment:Electricity:Zone:BREAK_ROOM_25 [J]
Zone,Meter,General:InteriorEquipment:Electricity:Zone:BREAK_ROOM_25 [J]
Zone,Meter,InteriorEquipment:Electricity:Zone:MECHANICAL_25 [J]
Zone,Meter,General:InteriorEquipment:Electricity:Zone:MECHANICAL_25 [J]
Zone,Meter,InteriorEquipment:Electricity:Zone:OFFICE_OPEN_25 [J]
Zone,Meter,General:InteriorEquipment:Electricity:Zone:OFFICE_OPEN_25 [J]
Zone,Meter,InteriorEquipment:Electricity:Zone:OFFICE_PRIVATE_25 [J]
Zone,Meter,General:InteriorEquipment:Electricity:Zone:OFFICE_PRIVATE_25 [J]
Zone,Meter,InteriorEquipment:Electricity:Zone:STORAGE_25 [J]
Zone,Meter,General:InteriorEquipment:Electricity:Zone:STORAGE_25 [J]
Zone,Meter,InteriorEquipment:Electricity:Zone:LOBBY_26 [J]
Zone,Meter,General:InteriorEquipment:Electricity:Zone:LOBBY_26 [J]
Zone,Meter,InteriorEquipment:Electricity:Zone:CONFERENCE_26 [J]
Zone,Meter,General:InteriorEquipment:Electricity:Zone:CONFERENCE_26 [J]
Zone,Meter,InteriorEquipment:Electricity:Zone:BREAK_ROOM_26 [J]
Zone,Meter,General:InteriorEquipment:Electricity:Zone:BREAK_ROOM_26 [J]
Zone,Meter,InteriorEquipment:Electricity:Zone:OFFICE_OPEN_26 [J]
Zone,Meter,General:InteriorEquipment:Electricity:Zone:OFFICE_OPEN_26 [J]
Zone,Meter,InteriorEquipment:Electricity:Zone:OFFICE_PRIVATE_26 [J]
Zone,Meter,General:InteriorEquipment:Electricity:Zone:OFFICE_PRIVATE_26 [J]
Zone,Meter,InteriorEquipment:Electricity:Zone:STORAGE_26 [J]
Zone,Meter,General:InteriorEquipment:Electricity:Zone:STORAGE_26 [J]
Zone,Meter,InteriorEquipment:Electricity:Zone:LOBBY_27 [J]
Zone,Meter,General:InteriorEquipment:Electricity:Zone:LOBBY_27 [J]
Zone,Meter,InteriorEquipment:Electricity:Zone:CONFERENCE_27 [J]
Zone,Meter,General:InteriorEquipment:Electricity:Zone:CONFERENCE_27 [J]
Zone,Meter,InteriorEquipment:Electricity:Zone:BREAK_ROOM_27 [J]
Zone,Meter,General:InteriorEquipment:Electricity:Zone:BREAK_ROOM_27 [J]
Zone,Meter,InteriorEquipment:Electricity:Zone:MECHANICAL_27 [J]
Zone,Meter,General:InteriorEquipment:Electricity:Zone:MECHANICAL_27 [J]
Zone,Meter,InteriorEquipment:Electricity:Zone:OFFICE_OPEN_27 [J]
Zone,Meter,General:InteriorEquipment:Electricity:Zone:OFFICE_OPEN_27 [J]
Zone,Meter,InteriorEquipment:Electricity:Zone:OFFICE_PRIVATE_27 [J]
Zone,Meter,General:InteriorEquipment:Electricity:Zone:OFFICE_PRIVATE_27 [J]
Zone,Meter,InteriorEquipment:Electricity:Zone:STORAGE_27 [J]
Zone,Meter,General:InteriorEquipment:Electricity:Zone:STORAGE_27 [J]
Zone,Meter,InteriorEquipment:Electricity:Zone:LOBBY_28 [J]
Zone,Meter,General:InteriorEquipment:Electricity:Zone:LOBBY_28 [J]
Zone,Meter,InteriorEquipment:Electricity:Zone:CONFERENCE_28 [J]
Zone,Meter,General:InteriorEquipment:Electricity:Zone:CONFERENCE_28 [J]
Zone,Meter,InteriorEquipment:Electricity:Zone:BREAK_ROOM_28 [J]
Zone,Meter,General:InteriorEquipment:Electricity:Zone:BREAK_ROOM_28 [J]
Zone,Meter,InteriorEquipment:Electricity:Zone:MECHANICAL_28 [J]
Zone,Meter,General:InteriorEquipment:Electricity:Zone:MECHANICAL_28 [J]
Zone,Meter,InteriorEquipment:Electricity:Zone:OFFICE_OPEN_28 [J]
Zone,Meter,General:InteriorEquipment:Electricity:Zone:OFFICE_OPEN_28 [J]
Zone,Meter,InteriorEquipment:Electricity:Zone:STORAGE_28 [J]
Zone,Meter,General:InteriorEquipment:Electricity:Zone:STORAGE_28 [J]
Zone,Meter,InteriorEquipment:Electricity:Zone:CONFERENCE_29 [J]
Zone,Meter,General:InteriorEquipment:Electricity:Zone:CONFERENCE_29 [J]
Zone,Meter,InteriorEquipment:Electricity:Zone:BREAK_ROOM_29 [J]
Zone,Meter,General:InteriorEquipment:Electricity:Zone:BREAK_ROOM_29 [J]
Zone,Meter,InteriorEquipment:Electricity:Zone:OFFICE_OPEN_29 [J]
Zone,Meter,General:InteriorEquipment:Electricity:Zone:OFFICE_OPEN_29 [J]
Zone,Meter,InteriorEquipment:Electricity:Zone:OFFICE_PRIVATE_29 [J]
Zone,Meter,General:InteriorEquipment:Electricity:Zone:OFFICE_PRIVATE_29 [J]
Zone,Meter,InteriorEquipment:Electricity:Zone:STORAGE_29 [J]
Zone,Meter,General:InteriorEquipment:Electricity:Zone:STORAGE_29 [J]
Zone,Meter,InteriorEquipment:Electricity:Zone:LOBBY_30 [J]
Zone,Meter,General:InteriorEquipment:Electricity:Zone:LOBBY_30 [J]
Zone,Meter,InteriorEquipment:Electricity:Zone:CONFERENCE_30 [J]
Zone,Meter,General:InteriorEquipment:Electricity:Zone:CONFERENCE_30 [J]
Zone,Meter,InteriorEquipment:Electricity:Zone:BREAK_ROOM_30 [J]
Zone,Meter,General:InteriorEquipment:Electricity:Zone:BREAK_ROOM_30 [J]
Zone,Meter,InteriorEquipment:Electricity:Zone:MECHANICAL_30 [J]
Zone,Meter,General:InteriorEquipment:Electricity:Zone:MECHANICAL_30 [J]
Zone,Meter,InteriorEquipment:Electricity:Zone:OFFICE_OPEN_30 [J]
Zone,Meter,General:InteriorEquipment:Electricity:Zone:OFFICE_OPEN_30 [J]
Zone,Meter,InteriorEquipment:Electricity:Zone:OFFICE_PRIVATE_30 [J]
Zone,Meter,General:InteriorEquipment:Electricity:Zone:OFFICE_PRIVATE_30 [J]
Zone,Meter,InteriorEquipment:Electricity:Zone:STORAGE_30 [J]
Zone,Meter,General:InteriorEquipment:Electricity:Zone:STORAGE_30 [J]
Zone,Meter,InteriorEquipment:Electricity:Zone:LOBBY_31 [J]
Zone,Meter,General:InteriorEquipment:Electricity:Zone:LOBBY_31 [J]
Zone,Meter,InteriorEquipment:Electricity:Zone:CONFERENCE_31 [J]
Zone,Meter,General:InteriorEquipment:Electricity:Zone:CONFERENCE_31 [J]
Zone,Meter,InteriorEquipment:Electricity:Zone:BREAK_ROOM_31 [J]
Zone,Meter,General:InteriorEquipment:Electricity:Zone:BREAK_ROOM_31 [J]
Zone,Meter,InteriorEquipment:Electricity:Zone:MECHANICAL_31 [J]
Zone,Meter,General:InteriorEquipment:Electricity:Zone:MECHANICAL_31 [J]
Zone,Meter,InteriorEquipment:Electricity:Zone:OFFICE_OPEN_31 [J]
Zone,Meter,General:InteriorEquipment:Electricity:Zone:OFFICE_OPEN_31 [J]
Zone,Meter,InteriorEquipment:Electricity:Zone:OFFICE_PRIVATE_31 [J]
Zone,Meter,General:InteriorEquipment:Electricity:Zone:OFFICE_PRIVATE_31 [J]
Zone,Meter,InteriorEquipment:Electricity:Zone:STORAGE_31 [J]
Zone,Meter,General:InteriorEquipment:Electricity:Zone:STORAGE_31 [J]
Zone,Meter,InteriorEquipment:Electricity:Zone:CONFERENCE_32 [J]
Zone,Meter,General:InteriorEquipment:Electricity:Zone:CONFERENCE_32 [J]
Zone,Meter,InteriorEquipment:Electricity:Zone:BREAK_ROOM_32 [J]
Zone,Meter,General:InteriorEquipment:Electricity:Zone:BREAK_ROOM_32 [J]
Zone,Meter,InteriorEquipment:Electricity:Zone:MECHANICAL_32 [J]
Zone,Meter,General:InteriorEquipment:Electricity:Zone:MECHANICAL_32 [J]
Zone,Meter,InteriorEquipment:Electricity:Zone:OFFICE_OPEN_32 [J]
Zone,Meter,General:InteriorEquipment:Electricity:Zone:OFFICE_OPEN_32 [J]
Zone,Meter,InteriorEquipment:Electricity:Zone:OFFICE_PRIVATE_32 [J]
Zone,Meter,General:InteriorEquipment:Electricity:Zone:OFFICE_PRIVATE_32 [J]
Zone,Meter,InteriorEquipment:Electricity:Zone:STORAGE_32 [J]
Zone,Meter,General:InteriorEquipment:Electricity:Zone:STORAGE_32 [J]
Zone,Meter,InteriorEquipment:Electricity:Zone:LOBBY_33 [J]
Zone,Meter,General:InteriorEquipment:Electricity:Zone:LOBBY_33 [J]
Zone,Meter,InteriorEquipment:Electricity:Zone:CONFERENCE_33 [J]
Zone,Meter,General:InteriorEquipment:Electricity:Zone:CONFERENCE_33 [J]
Zone,Meter,InteriorEquipment:Electricity:Zone:BREAK_ROOM_33 [J]
Zone,Meter,General:InteriorEquipment:Electricity:Zone:BREAK_ROOM_33 [J]
Zone,Meter,InteriorEquipment:Electricity:Zone:MECHANICAL_33 [J]
Zone,Meter,General:InteriorEquipment:Electricity:Zone:MECHANICAL_33 [J]
Zone,Meter,InteriorEquipment:Electricity:Zone:OFFICE_OPEN_33 [J]
Zone,Meter,General:InteriorEquipment:Electricity:Zone:OFFICE_OPEN_33 [J]
Zone,Meter,InteriorEquipment:Electricity:Zone:OFFICE_PRIVATE_33 [J]
Zone,Meter,General:InteriorEquipment:Electricity:Zone:OFFICE_PRIVATE_33 [J]
Zone,Meter,InteriorEquipment:Electricity:Zone:STORAGE_33 [J]
Zone,Meter,General:InteriorEquipment:Electricity:Zone:STORAGE_33 [J]
Zone,Meter,InteriorEquipment:Electricity:Zone:LOBBY_34 [J]
Zone,Meter,General:InteriorEquipment:Electricity:Zone:LOBBY_34 [J]
Zone,Meter,InteriorEquipment:Electricity:Zone:BREAK_ROOM_34 [J]
Zone,Meter,General:InteriorEquipment:Electricity:Zone:BREAK_ROOM_34 [J]
Zone,Meter,InteriorEquipment:Electricity:Zone:MECHANICAL_34 [J]
Zone,Meter,General:InteriorEquipment:Electricity:Zone:MECHANICAL_34 [J]
Zone,Meter,InteriorEquipment:Electricity:Zone:OFFICE_OPEN_34 [J]
Zone,Meter,General:InteriorEquipment:Electricity:Zone:OFFICE_OPEN_34 [J]
Zone,Meter,InteriorEquipment:Electricity:Zone:OFFICE_PRIVATE_34 [J]
Zone,Meter,General:InteriorEquipment:Electricity:Zone:OFFICE_PRIVATE_34 [J]
Zone,Meter,InteriorEquipment:Electricity:Zone:STORAGE_34 [J]
Zone,Meter,General:InteriorEquipment:Electricity:Zone:STORAGE_34 [J]
Zone,Meter,InteriorEquipment:Electricity:Zone:LOBBY_35 [J]
Zone,Meter,General:InteriorEquipment:Electricity:Zone:LOBBY_35 [J]
Zone,Meter,InteriorEquipment:Electricity:Zone:BREAK_ROOM_35 [J]
Zone,Meter,General:InteriorEquipment:Electricity:Zone:BREAK_ROOM_35 [J]
Zone,Meter,InteriorEquipment:Electricity:Zone:MECHANICAL_35 [J]
Zone,Meter,General:InteriorEquipment:Electricity:Zone:MECHANICAL_35 [J]
Zone,Meter,InteriorEquipment:Electricity:Zone:OFFICE_OPEN_35 [J]
Zone,Meter,General:InteriorEquipment:Electricity:Zone:OFFICE_OPEN_35 [J]
Zone,Meter,InteriorEquipment:Electricity:Zone:OFFICE_PRIVATE_35 [J]
Zone,Meter,General:InteriorEquipment:Electricity:Zone:OFFICE_PRIVATE_35 [J]
Zone,Meter,InteriorEquipment:Electricity:Zone:STORAGE_35 [J]
Zone,Meter,General:InteriorEquipment:Electricity:Zone:STORAGE_35 [J]
Zone,Meter,InteriorEquipment:Electricity:Zone:LOBBY_36 [J]
Zone,Meter,General:InteriorEquipment:Electricity:Zone:LOBBY_36 [J]
Zone,Meter,InteriorEquipment:Electricity:Zone:CONFERENCE_36 [J]
Zone,Meter,General:InteriorEquipment:Electricity:Zone:CONFERENCE_36 [J]
Zone,Meter,InteriorEquipment:Electricity:Zone:BREAK_ROOM_36 [J]
Zone,Meter,General:InteriorEquipment:Electricity:Zone:BREAK_ROOM_36 [J]
Zone,Meter,InteriorEquipment:Electricity:Zone:MECHANICAL_36 [J]
Zone,Meter,General:InteriorEquipment:Electricity:Zone:MECHANICAL_36 [J]
Zone,Meter,InteriorEquipment:Electricity:Zone:OFFICE_OPEN_36 [J]
Zone,Meter,General:InteriorEquipment:Electricity:Zone:OFFICE_OPEN_36 [J]
Zone,Meter,InteriorEquipment:Electricity:Zone:OFFICE_PRIVATE_36 [J]
Zone,Meter,General:InteriorEquipment:Electricity:Zone:OFFICE_PRIVATE_36 [J]
Zone,Meter,InteriorEquipment:Electricity:Zone:STORAGE_36 [J]
Zone,Meter,General:InteriorEquipment:Electricity:Zone:STORAGE_36 [J]
Zone,Meter,InteriorEquipment:Electricity:Zone:LOBBY_37 [J]
Zone,Meter,General:InteriorEquipment:Electricity:Zone:LOBBY_37 [J]
Zone,Meter,InteriorEquipment:Electricity:Zone:CONFERENCE_37 [J]
Zone,Meter,General:InteriorEquipment:Electricity:Zone:CONFERENCE_37 [J]
Zone,Meter,InteriorEquipment:Electricity:Zone:BREAK_ROOM_37 [J]
Zone,Meter,General:InteriorEquipment:Electricity:Zone:BREAK_ROOM_37 [J]
Zone,Meter,InteriorEquipment:Electricity:Zone:MECHANICAL_37 [J]
Zone,Meter,General:InteriorEquipment:Electricity:Zone:MECHANICAL_37 [J]
Zone,Meter,InteriorEquipment:Electricity:Zone:OFFICE_PRIVATE_37 [J]
Zone,Meter,General:InteriorEquipment:Electricity:Zone:OFFICE_PRIVATE_37 [J]
Zone,Meter,InteriorEquipment:Electricity:Zone:STORAGE_37 [J]
Zone,Meter,General:InteriorEquipment:Electricity:Zone:STORAGE_37 [J]
Zone,Meter,InteriorEquipment:Electricity:Zone:LOBBY_38 [J]
Zone,Meter,General:InteriorEquipment:Electricity:Zone:LOBBY_38 [J]
Zone,Meter,InteriorEquipment:Electricity:Zone:CONFERENCE_38 [J]
Zone,Meter,General:InteriorEquipment:Electricity:Zone:CONFERENCE_38 [J]
Zone,Meter,InteriorEquipment:Electricity:Zone:BREAK_ROOM_38 [J]
Zone,Meter,General:InteriorEquipment:Electricity:Zone:BREAK_ROOM_38 [J]
Zone,Meter,InteriorEquipment:Electricity:Zone:MECHANICAL_38 [J]
Zone,Meter,General:InteriorEquipment:Electricity:Zone:MECHANICAL_38 [J]
Zone,Meter,InteriorEquipment:Electricity:Zone:OFFICE_PRIVATE_38 [J]
Zone,Meter,General:InteriorEquipment:Electricity:Zone:OFFICE_PRIVATE_38 [J]
Zone,Meter,InteriorEquipment:Electricity:Zone:LOBBY_39 [J]
Zone,Meter,General:InteriorEquipment:Electricity:Zone:LOBBY_39 [J]
Zone,Meter,InteriorEquipment:Electricity:Zone:CONFERENCE_39 [J]
Zone,Meter,General:InteriorEquipment:Electricity:Zone:CONFERENCE_39 [J]
Zone,Meter,InteriorEquipment:Electricity:Zone:BREAK_ROOM_39 [J]
Zone,Meter,General:InteriorEquipment:Electricity:Zone:BREAK_ROOM_39 [J]
Zone,Meter,InteriorEquipment:Electricity:Zone:MECHANICAL_39 [J]
Zone,Meter,General:InteriorEquipment:Electricity:Zone:MECHANICAL_39 [J]
Zone,Meter,InteriorEquipment:Electricity:Zone:OFFICE_OPEN_39 [J]
Zone,Meter,General:InteriorEquipment:Electricity:Zone:OFFICE_OPEN_39 [J]
Zone,Meter,InteriorEquipment:Electricity:Zone:OFFICE_PRIVATE_39 [J]
[...]
Zone,Meter,EnergyTransfer:Zone:OFFICE_PRIVATE_30 [J]
Zone,Meter,Heating:EnergyTransfer:Zone:OFFICE_PRIVATE_30 [J]
Zone,Meter,General:Heating:EnergyTransfer:Zone:OFFICE_PRIVATE_30 [J]
Zone,Meter,Cooling:EnergyTransfer:Zone:OFFICE_PRIVATE_30 [J]
Zone,Meter,General:Cooling:EnergyTransfer:Zone:OFFICE_PRIVATE_30 [J]
Zone,Meter,EnergyTransfer:Zone:STORAGE_30 [J]
Zone,Meter,Heating:EnergyTransfer:Zone:STORAGE_30 [J]
Zone,Meter,General:Heating:EnergyTransfer:Zone:STORAGE_30 [J]
Zone,Meter,Cooling:EnergyTransfer:Zone:STORAGE_30 [J]
Zone,Meter,General:Cooling:EnergyTransfer:Zone:STORAGE_30 [J]
Zone,Meter,EnergyTransfer:Zone:LOBBY_31 [J]
Zone,Meter,Heating:EnergyTransfer:Zone:LOBBY_31 [J]
Zone,Meter,General:Heating:EnergyTransfer:Zone:LOBBY_31 [J]
Zone,Meter,Cooling:EnergyTransfer:Zone:LOBBY_31 [J]
Zone,Meter,General:Cooling:EnergyTransfer:Zone:LOBBY_31 [J]
Zone,Meter,EnergyTransfer:Zone:CONFERENCE_31 [J]
Zone,Meter,Heating:EnergyTransfer:Zone:CONFERENCE_31 [J]
Zone,Meter,General:Heating:EnergyTransfer:Zone:CONFERENCE_31 [J]
Zone,Meter,Cooling:EnergyTransfer:Zone:CONFERENCE_31 [J]
Zone,Meter,General:Cooling:EnergyTransfer:Zone:CONFERENCE_31 [J]
Zone,Meter,EnergyTransfer:Zone:BREAK_ROOM_31 [J]
Zone,Meter,Heating:EnergyTransfer:Zone:BREAK_ROOM_31 [J]
Zone,Meter,General:Heating:EnergyTransfer:Zone:BREAK_ROOM_31 [J]
Zone,Meter,Cooling:EnergyTransfer:Zone:BREAK_ROOM_31 [J]
Zone,Meter,General:Cooling:EnergyTransfer:Zone:BREAK_ROOM_31 [J]
Zone,Meter,EnergyTransfer:Zone:MECHANICAL_31 [J]
Zone,Meter,Heating:EnergyTransfer:Zone:MECHANICAL_31 [J]
Zone,Meter,General:Heating:EnergyTransfer:Zone:MECHANICAL_31 [J]
Zone,Meter,Cooling:EnergyTransfer:Zone:MECHANICAL_31 [J]
Zone,Meter,General:Cooling:EnergyTransfer:Zone:MECHANICAL_31 [J]
Zone,Meter,EnergyTransfer:Zone:OFFICE_OPEN_31 [J]
Zone,Meter,Heating:EnergyTransfer:Zone:OFFICE_OPEN_31 [J]
Zone,Meter,General:Heating:EnergyTransfer:Zone:OFFICE_OPEN_31 [J]
Zone,Meter,Cooling:EnergyTransfer:Zone:OFFICE_OPEN_31 [J]
Zone,Meter,General:Cooling:EnergyTransfer:Zone:OFFICE_OPEN_31 [J]
Zone,Meter,EnergyTransfer:Zone:OFFICE_PRIVATE_31 [J]
Zone,Meter,Heating:EnergyTransfer:Zone:OFFICE_PRIVATE_31 [J]
Zone,Meter,General:Heating:EnergyTransfer:Zone:OFFICE_PRIVATE_31 [J]
Zone,Meter,Cooling:EnergyTransfer:Zone:OFFICE_PRIVATE_31 [J]
Zone,Meter,General:Cooling:EnergyTransfer:Zone:OFFICE_PRIVATE_31 [J]
Zone,Meter,EnergyTransfer:Zone:STORAGE_31 [J]
Zone,Meter,Heating:EnergyTransfer:Zone:STORAGE_31 [J]
Zone,Meter,General:Heating:EnergyTransfer:Zone:STORAGE_31 [J]
Zone,Meter,Cooling:EnergyTransfer:Zone:STORAGE_31 [J]
Zone,Meter,General:Cooling:EnergyTransfer:Zone:STORAGE_31 [J]
Zone,Meter,EnergyTransfer:Zone:CONFERENCE_32 [J]
Zone,Meter,Heating:EnergyTransfer:Zone:CONFERENCE_32 [J]
Zone,Meter,General:Heating:EnergyTransfer:Zone:CONFERENCE_32 [J]
Zone,Meter,Cooling:EnergyTransfer:Zone:CONFERENCE_32 [J]
Zone,Meter,General:Cooling:EnergyTransfer:Zone:CONFERENCE_32 [J]
Zone,Meter,EnergyTransfer:Zone:BREAK_ROOM_32 [J]
Zone,Meter,Heating:EnergyTransfer:Zone:BREAK_ROOM_32 [J]
Zone,Meter,General:Heating:EnergyTransfer:Zone:BREAK_ROOM_32 [J]
Zone,Meter,Cooling:EnergyTransfer:Zone:BREAK_ROOM_32 [J]
Zone,Meter,General:Cooling:EnergyTransfer:Zone:BREAK_ROOM_32 [J]
Zone,Meter,EnergyTransfer:Zone:MECHANICAL_32 [J]
Zone,Meter,Heating:EnergyTransfer:Zone:MECHANICAL_32 [J]
Zone,Meter,General:Heating:EnergyTransfer:Zone:MECHANICAL_32 [J]
Zone,Meter,Cooling:EnergyTransfer:Zone:MECHANICAL_32 [J]
Zone,Meter,General:Cooling:EnergyTransfer:Zone:MECHANICAL_32 [J]
Zone,Meter,EnergyTransfer:Zone:OFFICE_OPEN_32 [J]
Zone,Meter,Heating:EnergyTransfer:Zone:OFFICE_OPEN_32 [J]
Zone,Meter,General:Heating:EnergyTransfer:Zone:OFFICE_OPEN_32 [J]
Zone,Meter,Cooling:EnergyTransfer:Zone:OFFICE_OPEN_32 [J]
Zone,Meter,General:Cooling:EnergyTransfer:Zone:OFFICE_OPEN_32 [J]
Zone,Meter,EnergyTransfer:Zone:OFFICE_PRIVATE_32 [J]
Zone,Meter,Heating:EnergyTransfer:Zone:OFFICE_PRIVATE_32 [J]
Zone,Meter,General:Heating:EnergyTransfer:Zone:OFFICE_PRIVATE_32 [J]
Zone,Meter,Cooling:EnergyTransfer:Zone:OFFICE_PRIVATE_32 [J]
Zone,Meter,General:Cooling:EnergyTransfer:Zone:OFFICE_PRIVATE_32 [J]
Zone,Meter,EnergyTransfer:Zone:STORAGE_32 [J]
Zone,Meter,Heating:EnergyTransfer:Zone:STORAGE_32 [J]
Zone,Meter,General:Heating:EnergyTransfer:Zone:STORAGE_32 [J]
Zone,Meter,Cooling:EnergyTransfer:Zone:STORAGE_32 [J]
Zone,Meter,General:Cooling:EnergyTransfer:Zone:STORAGE_32 [J]
Zone,Meter,EnergyTransfer:Zone:LOBBY_33 [J]
Zone,Meter,Heating:EnergyTransfer:Zone:LOBBY_33 [J]
Zone,Meter,General:Heating:EnergyTransfer:Zone:LOBBY_33 [J]
Zone,Meter,Cooling:EnergyTransfer:Zone:LOBBY_33 [J]
Zone,Meter,General:Cooling:EnergyTransfer:Zone:LOBBY_33 [J]
Zone,Meter,EnergyTransfer:Zone:CONFERENCE_33 [J]
Zone,Meter,Heating:EnergyTransfer:Zone:CONFERENCE_33 [J]
Zone,Meter,General:Heating:EnergyTransfer:Zone:CONFERENCE_33 [J]
Zone,Meter,Cooling:EnergyTransfer:Zone:CONFERENCE_33 [J]
Zone,Meter,General:Cooling:EnergyTransfer:Zone:CONFERENCE_33 [J]
Zone,Meter,EnergyTransfer:Zone:BREAK_ROOM_33 [J]
Zone,Meter,Heating:EnergyTransfer:Zone:BREAK_ROOM_33 [J]
Zone,Meter,General:Heating:EnergyTransfer:Zone:BREAK_ROOM_33 [J]
Zone,Meter,Cooling:EnergyTransfer:Zone:BREAK_ROOM_33 [J]
Zone,Meter,General:Cooling:EnergyTransfer:Zone:BREAK_ROOM_33 [J]
Zone,Meter,EnergyTransfer:Zone:MECHANICAL_33 [J]
Zone,Meter,Heating:EnergyTransfer:Zone:MECHANICAL_33 [J]
Zone,Meter,General:Heating:EnergyTransfer:Zone:MECHANICAL_33 [J]
Zone,Meter,Cooling:EnergyTransfer:Zone:MECHANICAL_33 [J]
Zone,Meter,General:Cooling:EnergyTransfer:Zone:MECHANICAL_33 [J]
Zone,Meter,EnergyTransfer:Zone:OFFICE_OPEN_33 [J]
Zone,Meter,Heating:EnergyTransfer:Zone:OFFICE_OPEN_33 [J]
Zone,Meter,General:Heating:EnergyTransfer:Zone:OFFICE_OPEN_33 [J]
Zone,Meter,Cooling:EnergyTransfer:Zone:OFFICE_OPEN_33 [J]
Zone,Meter,General:Cooling:EnergyTransfer:Zone:OFFICE_OPEN_33 [J]
Zone,Meter,EnergyTransfer:Zone:OFFICE_PRIVATE_33 [J]
Zone,Meter,Heating:EnergyTransfer:Zone:OFFICE_PRIVATE_33 [J]
Zone,Meter,General:Heating:EnergyTransfer:Zone:OFFICE_PRIVATE_33 [J]
Zone,Meter,Cooling:EnergyTransfer:Zone:OFFICE_PRIVATE_33 [J]
Zone,Meter,General:Cooling:EnergyTransfer:Zone:OFFICE_PRIVATE_33 [J]
Zone,Meter,EnergyTransfer:Zone:STORAGE_33 [J]
Zone,Meter,Heating:EnergyTransfer:Zone:STORAGE_33 [J]
Zone,Meter,General:Heating:EnergyTransfer:Zone:STORAGE_33 [J]
Zone,Meter,Cooling:EnergyTransfer:Zone:STORAGE_33 [J]
Zone,Meter,General:Cooling:EnergyTransfer:Zone:STORAGE_33 [J]
Zone,Meter,EnergyTransfer:Zone:LOBBY_34 [J]
Zone,Meter,Heating:EnergyTransfer:Zone:LOBBY_34 [J]
Zone,Meter,General:Heating:EnergyTransfer:Zone:LOBBY_34 [J]
Zone,Meter,Cooling:EnergyTransfer:Zone:LOBBY_34 [J]
Zone,Meter,General:Cooling:EnergyTransfer:Zone:LOBBY_34 [J]
Zone,Meter,EnergyTransfer:Zone:BREAK_ROOM_34 [J]
Zone,Meter,Heating:EnergyTransfer:Zone:BREAK_ROOM_34 [J]
Zone,Meter,General:Heating:EnergyTransfer:Zone:BREAK_ROOM_34 [J]
Zone,Meter,Cooling:EnergyTransfer:Zone:BREAK_ROOM_34 [J]
Zone,Meter,General:Cooling:EnergyTransfer:Zone:BREAK_ROOM_34 [J]
Zone,Meter,EnergyTransfer:Zone:MECHANICAL_34 [J]
Zone,Meter,Heating:EnergyTransfer:Zone:MECHANICAL_34 [J]
Zone,Meter,General:Heating:EnergyTransfer:Zone:MECHANICAL_34 [J]
Zone,Meter,Cooling:EnergyTransfer:Zone:MECHANICAL_34 [J]
Zone,Meter,General:Cooling:EnergyTransfer:Zone:MECHANICAL_34 [J]
Zone,Meter,EnergyTransfer:Zone:OFFICE_OPEN_34 [J]
Zone,Meter,Heating:EnergyTransfer:Zone:OFFICE_OPEN_34 [J]
Zone,Meter,General:Heating:EnergyTransfer:Zone:OFFICE_OPEN_34 [J]
Zone,Meter,Cooling:EnergyTransfer:Zone:OFFICE_OPEN_34 [J]
Zone,Meter,General:Cooling:EnergyTransfer:Zone:OFFICE_OPEN_34 [J]
Zone,Meter,EnergyTransfer:Zone:OFFICE_PRIVATE_34 [J]
Zone,Meter,Heating:EnergyTransfer:Zone:OFFICE_PRIVATE_34 [J]
Zone,Meter,General:Heating:EnergyTransfer:Zone:OFFICE_PRIVATE_34 [J]
Zone,Meter,Cooling:EnergyTransfer:Zone:OFFICE_PRIVATE_34 [J]
Zone,Meter,General:Cooling:EnergyTransfer:Zone:OFFICE_PRIVATE_34 [J]
Zone,Meter,EnergyTransfer:Zone:STORAGE_34 [J]
Zone,Meter,Heating:EnergyTransfer:Zone:STORAGE_34 [J]
Zone,Meter,General:Heating:EnergyTransfer:Zone:STORAGE_34 [J]
Zone,Meter,Cooling:EnergyTransfer:Zone:STORAGE_34 [J]
Zone,Meter,General:Cooling:EnergyTransfer:Zone:STORAGE_34 [J]
Zone,Meter,EnergyTransfer:Zone:LOBBY_35 [J]
Zone,Meter,Heating:EnergyTransfer:Zone:LOBBY_35 [J]
Zone,Meter,General:Heating:EnergyTransfer:Zone:LOBBY_35 [J]
Zone,Meter,Cooling:EnergyTransfer:Zone:LOBBY_35 [J]
Zone,Meter,General:Cooling:EnergyTransfer:Zone:LOBBY_35 [J]
Zone,Meter,EnergyTransfer:Zone:BREAK_ROOM_35 [J]
Zone,Meter,Heating:EnergyTransfer:Zone:BREAK_ROOM_35 [J]
Zone,Meter,General:Heating:EnergyTransfer:Zone:BREAK_ROOM_35 [J]
Zone,Meter,Cooling:EnergyTransfer:Zone:BREAK_ROOM_35 [J]
Zone,Meter,General:Cooling:EnergyTransfer:Zone:BREAK_ROOM_35 [J]
Zone,Meter,EnergyTransfer:Zone:MECHANICAL_35 [J]
Zone,Meter,Heating:EnergyTransfer:Zone:MECHANICAL_35 [J]
Zone,Meter,General:Heating:EnergyTransfer:Zone:MECHANICAL_35 [J]
Zone,Meter,Cooling:EnergyTransfer:Zone:MECHANICAL_35 [J]
Zone,Meter,General:Cooling:EnergyTransfer:Zone:MECHANICAL_35 [J]
Zone,Meter,EnergyTransfer:Zone:OFFICE_OPEN_35 [J]
Zone,Meter,Heating:EnergyTransfer:Zone:OFFICE_OPEN_35 [J]
Zone,Meter,General:Heating:EnergyTransfer:Zone:OFFICE_OPEN_35 [J]
Zone,Meter,Cooling:EnergyTransfer:Zone:OFFICE_OPEN_35 [J]
Zone,Meter,General:Cooling:EnergyTransfer:Zone:OFFICE_OPEN_35 [J]
Zone,Meter,EnergyTransfer:Zone:OFFICE_PRIVATE_35 [J]
Zone,Meter,Heating:EnergyTransfer:Zone:OFFICE_PRIVATE_35 [J]
Zone,Meter,General:Heating:EnergyTransfer:Zone:OFFICE_PRIVATE_35 [J]
Zone,Meter,Cooling:EnergyTransfer:Zone:OFFICE_PRIVATE_35 [J]
Zone,Meter,General:Cooling:EnergyTransfer:Zone:OFFICE_PRIVATE_35 [J]
Zone,Meter,EnergyTransfer:Zone:STORAGE_35 [J]
Zone,Meter,Heating:EnergyTransfer:Zone:STORAGE_35 [J]
Zone,Meter,General:Heating:EnergyTransfer:Zone:STORAGE_35 [J]
Zone,Meter,Cooling:EnergyTransfer:Zone:STORAGE_35 [J]
Zone,Meter,General:Cooling:EnergyTransfer:Zone:STORAGE_35 [J]
Zone,Meter,EnergyTransfer:Zone:LOBBY_36 [J]
Zone,Meter,Heating:EnergyTransfer:Zone:LOBBY_36 [J]
Zone,Meter,General:Heating:EnergyTransfer:Zone:LOBBY_36 [J]
Zone,Meter,Cooling:EnergyTransfer:Zone:LOBBY_36 [J]
Zone,Meter,General:Cooling:EnergyTransfer:Zone:LOBBY_36 [J]
Zone,Meter,EnergyTransfer:Zone:CONFERENCE_36 [J]
Zone,Meter,Heating:EnergyTransfer:Zone:CONFERENCE_36 [J]
Zone,Meter,General:Heating:EnergyTransfer:Zone:CONFERENCE_36 [J]
Zone,Meter,Cooling:EnergyTransfer:Zone:CONFERENCE_36 [J]
Zone,Meter,General:Cooling:EnergyTransfer:Zone:CONFERENCE_36 [J]
Zone,Meter,EnergyTransfer:Zone:BREAK_ROOM_36 [J]
Zone,Meter,Heating:EnergyTransfer:Zone:BREAK_ROOM_36 [J]
Zone,Meter,General:Heating:EnergyTransfer:Zone:BREAK_ROOM_36 [J]
Zone,Meter,Cooling:EnergyTransfer:Zone:BREAK_ROOM_36 [J]
Zone,Meter,General:Cooling:EnergyTransfer:Zone:BREAK_ROOM_36 [J]
Zone,Meter,EnergyTransfer:Zone:MECHANICAL_36 [J]
Zone,Meter,Heating:EnergyTransfer:Zone:MECHANICAL_36 [J]
Zone,Meter,General:Heating:EnergyTransfer:Zone:MECHANICAL_36 [J]
Zone,Meter,Cooling:EnergyTransfer:Zone:MECHANICAL_36 [J]
Zone,Meter,General:Cooling:EnergyTransfer:Zone:MECHANICAL_36 [J]
Zone,Meter,EnergyTransfer:Zone:OFFICE_OPEN_36 [J]
Zone,Meter,Heating:EnergyTransfer:Zone:OFFICE_OPEN_36 [J]
Zone,Meter,General:Heating:EnergyTransfer:Zone:OFFICE_OPEN_36 [J]
Zone,Meter,Cooling:EnergyTransfer:Zone:OFFICE_OPEN_36 [J]
Zone,Meter,General:Cooling:EnergyTransfer:Zone:OFFICE_OPEN_36 [J]
Zone,Meter,EnergyTransfer:Zone:OFFICE_PRIVATE_36 [J]
Zone,Meter,Heating:EnergyTransfer:Zone:OFFICE_PRIVATE_36 [J]
Zone,Meter,General:Heating:EnergyTransfer:Zone:OFFICE_PRIVATE_36 [J]
Zone,Meter,Cooling:EnergyTransfer:Zone:OFFICE_PRIVATE_36 [J]
Zone,Meter,General:Cooling:EnergyTransfer:Zone:OFFICE_PRIVATE_36 [J]
Zone,Meter,EnergyTransfer:Zone:STORAGE_36 [J]
Zone,Meter,Heating:EnergyTransfer:Zone:STORAGE_36 [J]
Zone,Meter,General:Heating:EnergyTransfer:Zone:STORAGE_36 [J]
Zone,Meter,Cooling:EnergyTransfer:Zone:STORAGE_36 [J]
Zone,Meter,General:Cooling:EnergyTransfer:Zone:STORAGE_36 [J]
Zone,Meter,EnergyTransfer:Zone:LOBBY_37 [J]
Zone,Meter,Heating:EnergyTransfer:Zone:LOBBY_37 [J]
Zone,Meter,General:Heating:EnergyTransfer:Zone:LOBBY_37 [J]
Zone,Meter,Cooling:EnergyTransfer:Zone:LOBBY_37 [J]
Zone,Meter,General:Cooling:EnergyTransfer:Zone:LOBBY_37 [J]
Zone,Meter,EnergyTransfer:Zone:CONFERENCE_37 [J]
Zone,Meter,Heating:EnergyTransfer:Zone:CONFERENCE_37 [J]
Zone,Meter,General:Heating:EnergyTransfer:Zone:CONFERENCE_37 [J]
Zone,Meter,Cooling:EnergyTransfer:Zone:CONFERENCE_37 [J]
Zone,Meter,General:Cooling:EnergyTransfer:Zone:CONFERENCE_37 [J]
Zone,Meter,EnergyTransfer:Zone:BREAK_ROOM_37 [J]
Zone,Meter,Heating:EnergyTransfer:Zone:BREAK_ROOM_37 [J]
Zone,Meter,General:Heating:EnergyTransfer:Zone:BREAK_ROOM_37 [J]
Zone,Meter,Cooling:EnergyTransfer:Zone:BREAK_ROOM_37 [J]
Zone,Meter,General:Cooling:EnergyTransfer:Zone:BREAK_ROOM_37 [J]
Zone,Meter,EnergyTransfer:Zone:MECHANICAL_37 [J]
Zone,Meter,Heating:EnergyTransfer:Zone:MECHANICAL_37 [J]
Zone,Meter,General:Heating:EnergyTransfer:Zone:MECHANICAL_37 [J]
Zone,Meter,Cooling:EnergyTransfer:Zone:MECHANICAL_37 [J]
Zone,Meter,General:Cooling:EnergyTransfer:Zone:MECHANICAL_37 [J]
Zone,Meter,EnergyTransfer:Zone:OFFICE_PRIVATE_37 [J]
Zone,Meter,Heating:EnergyTransfer:Zone:OFFICE_PRIVATE_37 [J]
Zone,Meter,General:Heating:EnergyTransfer:Zone:OFFICE_PRIVATE_37 [J]
Zone,Meter,Cooling:EnergyTransfer:Zone:OFFICE_PRIVATE_37 [J]
Zone,Meter,General:Cooling:EnergyTransfer:Zone:OFFICE_PRIVATE_37 [J]
Zone,Meter,EnergyTransfer:Zone:STORAGE_37 [J]
Zone,Meter,Heating:EnergyTransfer:Zone:STORAGE_37 [J]
Zone,Meter,General:Heating:EnergyTransfer:Zone:STORAGE_37 [J]
Zone,Meter,Cooling:EnergyTransfer:Zone:STORAGE_37 [J]
Zone,Meter,General:Cooling:EnergyTransfer:Zone:STORAGE_37 [J]
Zone,Meter,EnergyTransfer:Zone:LOBBY_38 [J]
Zone,Meter,Heating:EnergyTransfer:Zone:LOBBY_38 [J]
Zone,Meter,General:Heating:EnergyTransfer:Zone:LOBBY_38 [J]
Zone,Meter,Cooling:EnergyTransfer:Zone:LOBBY_38 [J]
Zone,Meter,General:Cooling:EnergyTransfer:Zone:LOBBY_38 [J]
Zone,Meter,EnergyTransfer:Zone:CONFERENCE_38 [J]
Zone,Meter,Heating:EnergyTransfer:Zone:CONFERENCE_38 [J]
Zone,Meter,General:Heating:EnergyTransfer:Zone:CONFERENCE_38 [J]
Zone,Meter,Cooling:EnergyTransfer:Zone:CONFERENCE_38 [J]
Zone,Meter,General:Cooling:EnergyTransfer:Zone:CONFERENCE_38 [J]
Zone,Meter,EnergyTransfer:Zone:BREAK_ROOM_38 [J]
Zone,Meter,Heating:EnergyTransfer:Zone:BREAK_ROOM_38 [J]
Zone,Meter,General:Heating:EnergyTransfer:Zone:BREAK_ROOM_38 [J]
Zone,Meter,Cooling:EnergyTransfer:Zone:BREAK_ROOM_38 [J]
Zone,Meter,General:Cooling:EnergyTransfer:Zone:BREAK_ROOM_38 [J]
Zone,Meter,EnergyTransfer:Zone:MECHANICAL_38 [J]
Zone,Meter,Heating:EnergyTransfer:Zone:MECHANICAL_38 [J]
Zone,Meter,General:Heating:EnergyTransfer:Zone:MECHANICAL_38 [J]
Zone,Meter,Cooling:EnergyTransfer:Zone:MECHANICAL_38 [J]
Zone,Meter,General:Cooling:EnergyTransfer:Zone:MECHANICAL_38 [J]
Zone,Meter,EnergyTransfer:Zone:OFFICE_PRIVATE_38 [J]
Zone,Meter,Heating:EnergyTransfer:Zone:OFFICE_PRIVATE_38 [J]
Zone,Meter,General:Heating:EnergyTransfer:Zone:OFFICE_PRIVATE_38 [J]
Zone,Meter,Cooling:EnergyTransfer:Zone:OFFICE_PRIVATE_38 [J]
Zone,Meter,General:Cooling:EnergyTransfer:Zone:OFFICE_PRIVATE_38 [J]
Zone,Meter,EnergyTransfer:Zone:LOBBY_39 [J]
Zone,Meter,Heating:EnergyTransfer:Zone:LOBBY_39 [J]
Zone,Meter,General:Heating:EnergyTransfer:Zone:LOBBY_39 [J]
Zone,Meter,Cooling:EnergyTransfer:Zone:LOBBY_39 [J]
Zone,Meter,General:Cooling:EnergyTransfer:Zone:LOBBY_39 [J]
Zone,Meter,EnergyTransfer:Zone:CONFERENCE_39 [J]
Zone,Meter,Heating:EnergyTransfer:Zone:CONFERENCE_39 [J]
Zone,Meter,General:Heating:EnergyTransfer:Zone:CONFERENCE_39 [J]
Zone,Meter,Cooling:EnergyTransfer:Zone:CONFERENCE_39 [J]
Zone,Meter,General:Cooling:EnergyTransfer:Zone:CONFERENCE_39 [J]
Zone,Meter,EnergyTransfer:Zone:BREAK_ROOM_39 [J]
Zone,Meter,Heating:EnergyTransfer:Zone:BREAK_ROOM_39 [J]
Zone,Meter,General:Heating:EnergyTransfer:Zone:BREAK_ROOM_39 [J]
Zone,Meter,Cooling:EnergyTransfer:Zone:BREAK_ROOM_39 [J]
Zone,Meter,General:Cooling:EnergyTransfer:Zone:BREAK_ROOM_39 [J]
Zone,Meter,EnergyTransfer:Zone:MECHANICAL_39 [J]
Zone,Meter,Heating:EnergyTransfer:Zone:MECHANICAL_39 [J]
Zone,Meter,General:Heating:EnergyTransfer:Zone:MECHANICAL_39 [J]
Zone,Meter,Cooling:EnergyTransfer:Zone:MECHANICAL_39 [J]
Zone,Meter,General:Cooling:EnergyTransfer:Zone:MECHANICAL_39 [J]
Zone,Meter,EnergyTransfer:Zone:OFFICE_OPEN_39 [J]
Zone,Meter,Heating:EnergyTransfer:Zone:OFFICE_OPEN_39 [J]
Zone,Meter,General:Heating:EnergyTransfer:Zone:OFFICE_OPEN_39 [J]
Zone,Meter,Cooling:EnergyTransfer:Zone:OFFICE_OPEN_39 [J]
Zone,Meter,General:Cooling:EnergyTransfer:Zone:OFFICE_OPEN_39 [J]
Zone,Meter,EnergyTransfer:Zone:OFFICE_PRIVATE_39 [J]
Zone,Meter,Heating:EnergyTransfer:Zone:OFFICE_PRIVATE_39 [J]
Zone,Meter,General:Heating:EnergyTransfer:Zone:OFFICE_PRIVATE_39 [J]
Zone,Meter,Cooling:EnergyTransfer:Zone:OFFICE_PRIVATE_39 [J]
Zone,Meter,General:Cooling:EnergyTransfer:Zone:OFFICE_PRIVATE_39 [J]
Zone,Meter,EnergyTransfer:Zone:STORAGE_39 [J]
Zone,Meter,Heating:EnergyTransfer:Zone:STORAGE_39 [J]
Zone,Meter,General:Heating:EnergyTransfer:Zone:STORAGE_39 [J]
Zone,Meter,Cooling:EnergyTransfer:Zone:STORAGE_39 [J]
Zone,Meter,General:Cooling:EnergyTransfer:Zone:STORAGE_39 [J]
Zone,Meter,EnergyTransfer:Zone:LOBBY_40 [J]
Zone,Meter,Heating:EnergyTransfer:Zone:LOBBY_40 [J]
Zone,Meter,General:Heating:EnergyTransfer:Zone:LOBBY_40 [J]
Zone,Meter,Cooling:EnergyTransfer:Zone:LOBBY_40 [J]
Zone,Meter,General:Cooling:EnergyTransfer:Zone:LOBBY_40 [J]
Zone,Meter,EnergyTransfer:Zone:CONFERENCE_40 [J]
Zone,Meter,Heating:EnergyTransfer:Zone:CONFERENCE_40 [J]
Zone,Meter,General:Heating:EnergyTransfer:Zone:CONFERENCE_40 [J]
Zone,Meter,Cooling:EnergyTransfer:Zone:CONFERENCE_40 [J]
Zone,Meter,General:Cooling:EnergyTransfer:Zone:CONFERENCE_40 [J]
Zone,Meter,EnergyTransfer:Zone:BREAK_ROOM_40 [J]
Zone,Meter,Heating:EnergyTransfer:Zone:BREAK_ROOM_40 [J]
Zone,Meter,General:Heating:EnergyTransfer:Zone:BREAK_ROOM_40 [J]
Zone,Meter,Cooling:EnergyTransfer:Zone:BREAK_ROOM_40 [J]
Zone,Meter,General:Cooling:EnergyTransfer:Zone:BREAK_ROOM_40 [J]
Zone,Meter,EnergyTransfer:Zone:MECHANICAL_40 [J]
Zone,Meter,Heating:EnergyTransfer:Zone:MECHANICAL_40 [J]
Zone,Meter,General:Heating:EnergyTransfer:Zone:MECHANICAL_40 [J]
Zone,Meter,Cooling:EnergyTransfer:Zone:MECHANICAL_40 [J]
Zone,Meter,General:Cooling:EnergyTransfer:Zone:MECHANICAL_40 [J]
Zone,Meter,EnergyTransfer:Zone:OFFICE_OPEN_40 [J]
Zone,Meter,Heating:EnergyTransfer:Zone:OFFICE_OPEN_40 [J]
Zone,Meter,General:Heating:EnergyTransfer:Zone:OFFICE_OPEN_40 [J]
Zone,Meter,Cooling:EnergyTransfer:Zone:OFFICE_OPEN_40 [J]
Zone,Meter,General:Cooling:EnergyTransfer:Zone:OFFICE_OPEN_40 [J]
Zone,Meter,EnergyTransfer:Zone:OFFICE_PRIVATE_40 [J]
Zone,Meter,Heating:EnergyTransfer:Zone:OFFICE_PRIVATE_40 [J]
Zone,Meter,General:Heating:EnergyTransfer:Zone:OFFICE_PRIVATE_40 [J]
Zone,Meter,Cooling:EnergyTransfer:Zone:OFFICE_PRIVATE_40 [J]
Zone,Meter,General:Cooling:EnergyTransfer:Zone:OFFICE_PRIVATE_40 [J]
Zone,Meter,EnergyTransfer:HVAC [J]
Zone,Meter,HeatingCoils:EnergyTransfer [J]
Zone,Meter,Electricity:HVAC [J]
Zone,Meter,Heating:Electricity [J]
Zone,Meter,General:Heating:Electricity [J]
Zone,Meter,Fans:Electricity [J]
Zone,Meter,General:Fans:Electricity [J]
Zone,Meter,CoolingCoils:EnergyTransfer [J]
Zone,Meter,Cooling:Electricity [J]
Zone,Meter,General:Cooling:Electricity [J]
Zone,Meter,ElectricityPurchased:Facility [J]
Zone,Meter,ElectricityPurchased:Plant [J]
Zone,Meter,Cogeneration:ElectricityPurchased [J]
Zone,Meter,General:Cogeneration:ElectricityPurchased [J]
Zone,Meter,ElectricitySurplusSold:Facility [J]
Zone,Meter,ElectricitySurplusSold:Plant [J]
Zone,Meter,Cogeneration:ElectricitySurplusSold [J]
Zone,Meter,General:Cogeneration:ElectricitySurplusSold [J]
Zone,Meter,ElectricityNet:Facility [J]
Zone,Meter,ElectricityNet:Plant [J]
Zone,Meter,Cogeneration:ElectricityNet [J]
Zone,Meter,General:Cogeneration:ElectricityNet [J]
Zone,Meter,Carbon Equivalent:Facility [kg]
Zone,Meter,CarbonEquivalentEmissions:Carbon Equivalent [kg]
