Program Version,EnergyPlus, Version 24.2.0-94a887817b, YMD=2025.11.02 10:35
! This file shows details about the branches, nodes, and other
! elements of the flow connections.
! This file is intended for use in "debugging" potential problems
! that may also be detected by the program, but may be more easily
! identified by "eye".
! This file is also intended to support software which draws a
! schematic diagram of the HVAC system.
! ===============================================================
! #Nodes,<Number of Unique Nodes>
 #Nodes,2860
! <Node>,<NodeNumber>,<Node Name>,<Node Fluid Type>,<# Times Node Referenced After Definition>
 Node,1,CONFERENCE_0_Z1_ADUOUTLET,Air,4
 Node,2,BREAK_ROOM_0_Z2_ADUOUTLET,Air,4
 Node,3,MECHANICAL_0_Z3_ADUOUTLET,Air,4
 Node,4,OFFICE_OPEN_0_Z4_ADUOUTLET,Air,4
 Node,5,OFFICE_PRIVATE_0_Z5_ADUOUTLET,Air,4
 Node,6,STORAGE_0_Z6_ADUOUTLET,Air,4
 Node,7,LOBBY_1_Z7_ADUOUTLET,Air,4
 Node,8,CONFERENCE_1_Z8_ADUOUTLET,Air,4
 Node,9,BREAK_ROOM_1_Z9_ADUOUTLET,Air,4
 Node,10,MECHANICAL_1_Z10_ADUOUTLET,Air,4
 Node,11,OFFICE_OPEN_1_Z11_ADUOUTLET,Air,4
 Node,12,OFFICE_PRIVATE_1_Z12_ADUOUTLET,Air,4
 Node,13,STORAGE_1_Z13_ADUOUTLET,Air,4
 Node,14,LOBBY_2_Z14_ADUOUTLET,Air,4
 Node,15,CONFERENCE_2_Z15_ADUOUTLET,Air,4
 Node,16,BREAK_ROOM_2_Z16_ADUOUTLET,Air,4
 Node,17,OFFICE_OPEN_2_Z17_ADUOUTLET,Air,4
 Node,18,OFFICE_PRIVATE_2_Z18_ADUOUTLET,Air,4
 Node,19,STORAGE_2_Z19_ADUOUTLET,Air,4
 Node,20,LOBBY_3_Z20_ADUOUTLET,Air,4
 Node,21,CONFERENCE_3_Z21_ADUOUTLET,Air,4
 Node,22,BREAK_ROOM_3_Z22_ADUOUTLET,Air,4
 Node,23,OFFICE_OPEN_3_Z23_ADUOUTLET,Air,4
 Node,24,OFFICE_PRIVATE_3_Z24_ADUOUTLET,Air,4
 Node,25,LOBBY_4_Z25_ADUOUTLET,Air,4
 Node,26,CONFERENCE_4_Z26_ADUOUTLET,Air,4
 Node,27,BREAK_ROOM_4_Z27_ADUOUTLET,Air,4
 Node,28,MECHANICAL_4_Z28_ADUOUTLET,Air,4
 Node,29,OFFICE_OPEN_4_Z29_ADUOUTLET,Air,4
 Node,30,OFFICE_PRIVATE_4_Z30_ADUOUTLET,Air,4
 Node,31,STORAGE_4_Z31_ADUOUTLET,Air,4
 Node,32,LOBBY_5_Z32_ADUOUTLET,Air,4
 Node,33,CONFERENCE_5_Z33_ADUOUTLET,Air,4
 Node,34,BREAK_ROOM_5_Z34_ADUOUTLET,Air,4
 Node,35,MECHANICAL_5_Z35_ADUOUTLET,Air,4
 Node,36,OFFICE_OPEN_5_Z36_ADUOUTLET,Air,4
 Node,37,OFFICE_PRIVATE_5_Z37_ADUOUTLET,Air,4
 Node,38,STORAGE_5_Z38_ADUOUTLET,Air,4
 Node,39,CONFERENCE_6_Z39_ADUOUTLET,Air,4
 Node,40,BREAK_ROOM_6_Z40_ADUOUTLET,Air,4
 Node,41,OFFICE_OPEN_6_Z41_ADUOUTLET,Air,4
 Node,42,OFFICE_PRIVATE_6_Z42_ADUOUTLET,Air,4
 Node,43,STORAGE_6_Z43_ADUOUTLET,Air,4
 Node,44,LOBBY_7_Z44_ADUOUTLET,Air,4
 Node,45,CONFERENCE_7_Z45_ADUOUTLET,Air,4
 Node,46,BREAK_ROOM_7_Z46_ADUOUTLET,Air,4
 Node,47,MECHANICAL_7_Z47_ADUOUTLET,Air,4
 Node,48,OFFICE_OPEN_7_Z48_ADUOUTLET,Air,4
 Node,49,OFFICE_PRIVATE_7_Z49_ADUOUTLET,Air,4
 Node,50,STORAGE_7_Z50_ADUOUTLET,Air,4
 Node,51,LOBBY_8_Z51_ADUOUTLET,Air,4
 Node,52,CONFERENCE_8_Z52_ADUOUTLET,Air,4
 Node,53,BREAK_ROOM_8_Z53_ADUOUTLET,Air,4
 Node,54,MECHANICAL_8_Z54_ADUOUTLET,Air,4
 Node,55,OFFICE_OPEN_8_Z55_ADUOUTLET,Air,4
 Node,56,STORAGE_8_Z56_ADUOUTLET,Air,4
 Node,57,LOBBY_9_Z57_ADUOUTLET,Air,4
 Node,58,CONFERENCE_9_Z58_ADUOUTLET,Air,4
 Node,59,BREAK_ROOM_9_Z59_ADUOUTLET,Air,4
 Node,60,MECHANICAL_9_Z60_ADUOUTLET,Air,4
 Node,61,OFFICE_OPEN_9_Z61_ADUOUTLET,Air,4
 Node,62,STORAGE_9_Z62_ADUOUTLET,Air,4
 Node,63,LOBBY_10_Z63_ADUOUTLET,Air,4
 Node,64,CONFERENCE_10_Z64_ADUOUTLET,Air,4
 Node,65,BREAK_ROOM_10_Z65_ADUOUTLET,Air,4
 Node,66,MECHANICAL_10_Z66_ADUOUTLET,Air,4
 Node,67,OFFICE_OPEN_10_Z67_ADUOUTLET,Air,4
 Node,68,OFFICE_PRIVATE_10_Z68_ADUOUTLET,Air,4
 Node,69,STORAGE_10_Z69_ADUOUTLET,Air,4
 Node,70,LOBBY_11_Z70_ADUOUTLET,Air,4
 Node,71,CONFERENCE_11_Z71_ADUOUTLET,Air,4
 Node,72,BREAK_ROOM_11_Z72_ADUOUTLET,Air,4
 Node,73,MECHANICAL_11_Z73_ADUOUTLET,Air,4
 Node,74,OFFICE_OPEN_11_Z74_ADUOUTLET,Air,4
 Node,75,OFFICE_PRIVATE_11_Z75_ADUOUTLET,Air,4
 Node,76,STORAGE_11_Z76_ADUOUTLET,Air,4
 Node,77,LOBBY_12_Z77_ADUOUTLET,Air,4
 Node,78,CONFERENCE_12_Z78_ADUOUTLET,Air,4
 Node,79,BREAK_ROOM_12_Z79_ADUOUTLET,Air,4
 Node,80,OFFICE_OPEN_12_Z80_ADUOUTLET,Air,4
 Node,81,OFFICE_PRIVATE_12_Z81_ADUOUTLET,Air,4
 Node,82,STORAGE_12_Z82_ADUOUTLET,Air,4
 Node,83,LOBBY_13_Z83_ADUOUTLET,Air,4
 Node,84,CONFERENCE_13_Z84_ADUOUTLET,Air,4
 Node,85,BREAK_ROOM_13_Z85_ADUOUTLET,Air,4
 Node,86,MECHANICAL_13_Z86_ADUOUTLET,Air,4
 Node,87,OFFICE_OPEN_13_Z87_ADUOUTLET,Air,4
 Node,88,OFFICE_PRIVATE_13_Z88_ADUOUTLET,Air,4
 Node,89,LOBBY_14_Z89_ADUOUTLET,Air,4
 Node,90,CONFERENCE_14_Z90_ADUOUTLET,Air,4
 Node,91,BREAK_ROOM_14_Z91_ADUOUTLET,Air,4
 Node,92,MECHANICAL_14_Z92_ADUOUTLET,Air,4
 Node,93,OFFICE_PRIVATE_14_Z93_ADUOUTLET,Air,4
 Node,94,STORAGE_14_Z94_ADUOUTLET,Air,4
 Node,95,LOBBY_15_Z95_ADUOUTLET,Air,4
 Node,96,CONFERENCE_15_Z96_ADUOUTLET,Air,4
 Node,97,BREAK_ROOM_15_Z97_ADUOUTLET,Air,4
 Node,98,MECHANICAL_15_Z98_ADUOUTLET,Air,4
 Node,99,OFFICE_OPEN_15_Z99_ADUOUTLET,Air,4
 Node,100,OFFICE_PRIVATE_15_Z100_ADUOUTLET,Air,4
 Node,101,STORAGE_15_Z101_ADUOUTLET,Air,4
 Node,102,LOBBY_16_Z102_ADUOUTLET,Air,4
 Node,103,CONFERENCE_16_Z103_ADUOUTLET,Air,4
 Node,104,BREAK_ROOM_16_Z104_ADUOUTLET,Air,4
 Node,105,MECHANICAL_16_Z105_ADUOUTLET,Air,4
 Node,106,OFFICE_OPEN_16_Z106_ADUOUTLET,Air,4
 Node,107,OFFICE_PRIVATE_16_Z107_ADUOUTLET,Air,4
 Node,108,STORAGE_16_Z108_ADUOUTLET,Air,4
 Node,109,LOBBY_17_Z109_ADUOUTLET,Air,4
 Node,110,CONFERENCE_17_Z110_ADUOUTLET,Air,4
 Node,111,BREAK_ROOM_17_Z111_ADUOUTLET,Air,4
 Node,112,OFFICE_OPEN_17_Z112_ADUOUTLET,Air,4
 Node,113,OFFICE_PRIVATE_17_Z113_ADUOUTLET,Air,4
 Node,114,STORAGE_17_Z114_ADUOUTLET,Air,4
 Node,115,LOBBY_18_Z115_ADUOUTLET,Air,4
 Node,116,CONFERENCE_18_Z116_ADUOUTLET,Air,4
 Node,117,BREAK_ROOM_18_Z117_ADUOUTLET,Air,4
 Node,118,MECHANICAL_18_Z118_ADUOUTLET,Air,4
 Node,119,OFFICE_OPEN_18_Z119_ADUOUTLET,Air,4
 Node,120,STORAGE_18_Z120_ADUOUTLET,Air,4
 Node,121,LOBBY_19_Z121_ADUOUTLET,Air,4
 Node,122,CONFERENCE_19_Z122_ADUOUTLET,Air,4
 Node,123,BREAK_ROOM_19_Z123_ADUOUTLET,Air,4
 Node,124,MECHANICAL_19_Z124_ADUOUTLET,Air,4
 Node,125,OFFICE_OPEN_19_Z125_ADUOUTLET,Air,4
 Node,126,OFFICE_PRIVATE_19_Z126_ADUOUTLET,Air,4
 Node,127,STORAGE_19_Z127_ADUOUTLET,Air,4
 Node,128,LOBBY_20_Z128_ADUOUTLET,Air,4
 Node,129,CONFERENCE_20_Z129_ADUOUTLET,Air,4
 Node,130,BREAK_ROOM_20_Z130_ADUOUTLET,Air,4
 Node,131,MECHANICAL_20_Z131_ADUOUTLET,Air,4
 Node,132,OFFICE_OPEN_20_Z132_ADUOUTLET,Air,4
 Node,133,OFFICE_PRIVATE_20_Z133_ADUOUTLET,Air,4
 Node,134,STORAGE_20_Z134_ADUOUTLET,Air,4
 Node,135,LOBBY_21_Z135_ADUOUTLET,Air,4
 Node,136,CONFERENCE_21_Z136_ADUOUTLET,Air,4
 Node,137,MECHANICAL_21_Z137_ADUOUTLET,Air,4
 Node,138,OFFICE_OPEN_21_Z138_ADUOUTLET,Air,4
 Node,139,STORAGE_21_Z139_ADUOUTLET,Air,4
 Node,140,LOBBY_22_Z140_ADUOUTLET,Air,4
 Node,141,CONFERENCE_22_Z141_ADUOUTLET,Air,4
 Node,142,BREAK_ROOM_22_Z142_ADUOUTLET,Air,4
 Node,143,MECHANICAL_22_Z143_ADUOUTLET,Air,4
 Node,144,OFFICE_OPEN_22_Z144_ADUOUTLET,Air,4
 Node,145,OFFICE_PRIVATE_22_Z145_ADUOUTLET,Air,4
 Node,146,STORAGE_22_Z146_ADUOUTLET,Air,4
 Node,147,LOBBY_23_Z147_ADUOUTLET,Air,4
 Node,148,BREAK_ROOM_23_Z148_ADUOUTLET,Air,4
 Node,149,MECHANICAL_23_Z149_ADUOUTLET,Air,4
 Node,150,OFFICE_OPEN_23_Z150_ADUOUTLET,Air,4
 Node,151,OFFICE_PRIVATE_23_Z151_ADUOUTLET,Air,4
 Node,152,STORAGE_23_Z152_ADUOUTLET,Air,4
 Node,153,LOBBY_24_Z153_ADUOUTLET,Air,4
 Node,154,CONFERENCE_24_Z154_ADUOUTLET,Air,4
 Node,155,BREAK_ROOM_24_Z155_ADUOUTLET,Air,4
 Node,156,MECHANICAL_24_Z156_ADUOUTLET,Air,4
 Node,157,OFFICE_OPEN_24_Z157_ADUOUTLET,Air,4
 Node,158,OFFICE_PRIVATE_24_Z158_ADUOUTLET,Air,4
 Node,159,STORAGE_24_Z159_ADUOUTLET,Air,4
 Node,160,LOBBY_25_Z160_ADUOUTLET,Air,4
 Node,161,CONFERENCE_25_Z161_ADUOUTLET,Air,4
 Node,162,BREAK_ROOM_25_Z162_ADUOUTLET,Air,4
 Node,163,MECHANICAL_25_Z163_ADUOUTLET,Air,4
 Node,164,OFFICE_OPEN_25_Z164_ADUOUTLET,Air,4
 Node,165,OFFICE_PRIVATE_25_Z165_ADUOUTLET,Air,4
 Node,166,STORAGE_25_Z166_ADUOUTLET,Air,4
 Node,167,LOBBY_26_Z167_ADUOUTLET,Air,4
 Node,168,CONFERENCE_26_Z168_ADUOUTLET,Air,4
 Node,169,BREAK_ROOM_26_Z169_ADUOUTLET,Air,4
 Node,170,OFFICE_OPEN_26_Z170_ADUOUTLET,Air,4
 Node,171,OFFICE_PRIVATE_26_Z171_ADUOUTLET,Air,4
 Node,172,STORAGE_26_Z172_ADUOUTLET,Air,4
 Node,173,LOBBY_27_Z173_ADUOUTLET,Air,4
 Node,174,CONFERENCE_27_Z174_ADUOUTLET,Air,4
 Node,175,BREAK_ROOM_27_Z175_ADUOUTLET,Air,4
 Node,176,MECHANICAL_27_Z176_ADUOUTLET,Air,4
 Node,177,OFFICE_OPEN_27_Z177_ADUOUTLET,Air,4
 Node,178,OFFICE_PRIVATE_27_Z178_ADUOUTLET,Air,4
 Node,179,STORAGE_27_Z179_ADUOUTLET,Air,4
 Node,180,LOBBY_28_Z180_ADUOUTLET,Air,4
 Node,181,CONFERENCE_28_Z181_ADUOUTLET,Air,4
 Node,182,BREAK_ROOM_28_Z182_ADUOUTLET,Air,4
 Node,183,MECHANICAL_28_Z183_ADUOUTLET,Air,4
 Node,184,OFFICE_OPEN_28_Z184_ADUOUTLET,Air,4
 Node,185,STORAGE_28_Z185_ADUOUTLET,Air,4
 Node,186,CONFERENCE_29_Z186_ADUOUTLET,Air,4
 Node,187,BREAK_ROOM_29_Z187_ADUOUTLET,Air,4
 Node,188,OFFICE_OPEN_29_Z188_ADUOUTLET,Air,4
 Node,189,OFFICE_PRIVATE_29_Z189_ADUOUTLET,Air,4
 Node,190,STORAGE_29_Z190_ADUOUTLET,Air,4
 Node,191,LOBBY_30_Z191_ADUOUTLET,Air,4
 Node,192,CONFERENCE_30_Z192_ADUOUTLET,Air,4
 Node,193,BREAK_ROOM_30_Z193_ADUOUTLET,Air,4
 Node,194,MECHANICAL_30_Z194_ADUOUTLET,Air,4
 Node,195,OFFICE_OPEN_30_Z195_ADUOUTLET,Air,4
 Node,196,OFFICE_PRIVATE_30_Z196_ADUOUTLET,Air,4
 Node,197,STORAGE_30_Z197_ADUOUTLET,Air,4
 Node,198,LOBBY_31_Z198_ADUOUTLET,Air,4
 Node,199,CONFERENCE_31_Z199_ADUOUTLET,Air,4
 Node,200,BREAK_ROOM_31_Z200_ADUOUTLET,Air,4
 Node,201,MECHANICAL_31_Z201_ADUOUTLET,Air,4
 Node,202,OFFICE_OPEN_31_Z202_ADUOUTLET,Air,4
 Node,203,OFFICE_PRIVATE_31_Z203_ADUOUTLET,Air,4
 Node,204,STORAGE_31_Z204_ADUOUTLET,Air,4
 Node,205,CONFERENCE_32_Z205_ADUOUTLET,Air,4
 Node,206,BREAK_ROOM_32_Z206_ADUOUTLET,Air,4
 Node,207,MECHANICAL_32_Z207_ADUOUTLET,Air,4
 Node,208,OFFICE_OPEN_32_Z208_ADUOUTLET,Air,4
 Node,209,OFFICE_PRIVATE_32_Z209_ADUOUTLET,Air,4
 Node,210,STORAGE_32_Z210_ADUOUTLET,Air,4
 Node,211,LOBBY_33_Z211_ADUOUTLET,Air,4
 Node,212,CONFERENCE_33_Z212_ADUOUTLET,Air,4
 Node,213,BREAK_ROOM_33_Z213_ADUOUTLET,Air,4
 Node,214,MECHANICAL_33_Z214_ADUOUTLET,Air,4
 Node,215,OFFICE_OPEN_33_Z215_ADUOUTLET,Air,4
 Node,216,OFFICE_PRIVATE_33_Z216_ADUOUTLET,Air,4
 Node,217,STORAGE_33_Z217_ADUOUTLET,Air,4
 Node,218,LOBBY_34_Z218_ADUOUTLET,Air,4
 Node,219,BREAK_ROOM_34_Z219_ADUOUTLET,Air,4
 Node,220,MECHANICAL_34_Z220_ADUOUTLET,Air,4
 Node,221,OFFICE_OPEN_34_Z221_ADUOUTLET,Air,4
 Node,222,OFFICE_PRIVATE_34_Z222_ADUOUTLET,Air,4
 Node,223,STORAGE_34_Z223_ADUOUTLET,Air,4
 Node,224,LOBBY_35_Z224_ADUOUTLET,Air,4
 Node,225,BREAK_ROOM_35_Z225_ADUOUTLET,Air,4
 Node,226,MECHANICAL_35_Z226_ADUOUTLET,Air,4
 Node,227,OFFICE_OPEN_35_Z227_ADUOUTLET,Air,4
 Node,228,OFFICE_PRIVATE_35_Z228_ADUOUTLET,Air,4
 Node,229,STORAGE_35_Z229_ADUOUTLET,Air,4
 Node,230,LOBBY_36_Z230_ADUOUTLET,Air,4
 Node,231,CONFERENCE_36_Z231_ADUOUTLET,Air,4
 Node,232,BREAK_ROOM_36_Z232_ADUOUTLET,Air,4
 Node,233,MECHANICAL_36_Z233_ADUOUTLET,Air,4
 Node,234,OFFICE_OPEN_36_Z234_ADUOUTLET,Air,4
 Node,235,OFFICE_PRIVATE_36_Z235_ADUOUTLET,Air,4
 Node,236,STORAGE_36_Z236_ADUOUTLET,Air,4
 Node,237,LOBBY_37_Z237_ADUOUTLET,Air,4
 Node,238,CONFERENCE_37_Z238_ADUOUTLET,Air,4
 Node,239,BREAK_ROOM_37_Z239_ADUOUTLET,Air,4
 Node,240,MECHANICAL_37_Z240_ADUOUTLET,Air,4
 Node,241,OFFICE_PRIVATE_37_Z241_ADUOUTLET,Air,4
 Node,242,STORAGE_37_Z242_ADUOUTLET,Air,4
 Node,243,LOBBY_38_Z243_ADUOUTLET,Air,4
 Node,244,CONFERENCE_38_Z244_ADUOUTLET,Air,4
 Node,245,BREAK_ROOM_38_Z245_ADUOUTLET,Air,4
 Node,246,MECHANICAL_38_Z246_ADUOUTLET,Air,4
 Node,247,OFFICE_PRIVATE_38_Z247_ADUOUTLET,Air,4
 Node,248,LOBBY_39_Z248_ADUOUTLET,Air,4
 Node,249,CONFERENCE_39_Z249_ADUOUTLET,Air,4
 Node,250,BREAK_ROOM_39_Z250_ADUOUTLET,Air,4
 Node,251,MECHANICAL_39_Z251_ADUOUTLET,Air,4
 Node,252,OFFICE_OPEN_39_Z252_ADUOUTLET,Air,4
 Node,253,OFFICE_PRIVATE_39_Z253_ADUOUTLET,Air,4
 Node,254,STORAGE_39_Z254_ADUOUTLET,Air,4
 Node,255,LOBBY_40_Z255_ADUOUTLET,Air,4
 Node,256,CONFERENCE_40_Z256_ADUOUTLET,Air,4
 Node,257,BREAK_ROOM_40_Z257_ADUOUTLET,Air,4
 Node,258,MECHANICAL_40_Z258_ADUOUTLET,Air,4
 Node,259,OFFICE_OPEN_40_Z259_ADUOUTLET,Air,4
 Node,260,OFFICE_PRIVATE_40_Z260_ADUOUTLET,Air,4
 Node,261,CONFERENCE_0_Z1_SUPPLYINLET,Air,3
 Node,262,CONFERENCE_0_Z1_COOLC-HEATCNODE,Air,6
 Node,263,CONFERENCE_0_Z1_HEATC-FANNODE,Air,5
 Node,264,CONFERENCE_0_Z1_SUPPLYEQUIPMENTOUTLETNODE,Air,3
 Node,265,BREAK_ROOM_0_Z2_SUPPLYINLET,Air,3
 Node,266,BREAK_ROOM_0_Z2_COOLC-HEATCNODE,Air,6
 Node,267,BREAK_ROOM_0_Z2_HEATC-FANNODE,Air,5
 Node,268,BREAK_ROOM_0_Z2_SUPPLYEQUIPMENTOUTLETNODE,Air,3
 Node,269,MECHANICAL_0_Z3_SUPPLYINLET,Air,3
 Node,270,MECHANICAL_0_Z3_COOLC-HEATCNODE,Air,6
 Node,271,MECHANICAL_0_Z3_HEATC-FANNODE,Air,5
 Node,272,MECHANICAL_0_Z3_SUPPLYEQUIPMENTOUTLETNODE,Air,3
 Node,273,OFFICE_OPEN_0_Z4_SUPPLYINLET,Air,3
 Node,274,OFFICE_OPEN_0_Z4_COOLC-HEATCNODE,Air,6
 Node,275,OFFICE_OPEN_0_Z4_HEATC-FANNODE,Air,5
 Node,276,OFFICE_OPEN_0_Z4_SUPPLYEQUIPMENTOUTLETNODE,Air,3
 Node,277,OFFICE_PRIVATE_0_Z5_SUPPLYINLET,Air,3
 Node,278,OFFICE_PRIVATE_0_Z5_COOLC-HEATCNODE,Air,6
 Node,279,OFFICE_PRIVATE_0_Z5_HEATC-FANNODE,Air,5
 Node,280,OFFICE_PRIVATE_0_Z5_SUPPLYEQUIPMENTOUTLETNODE,Air,3
 Node,281,STORAGE_0_Z6_SUPPLYINLET,Air,3
 Node,282,STORAGE_0_Z6_COOLC-HEATCNODE,Air,6
 Node,283,STORAGE_0_Z6_HEATC-FANNODE,Air,5
 Node,284,STORAGE_0_Z6_SUPPLYEQUIPMENTOUTLETNODE,Air,3
 Node,285,LOBBY_1_Z7_SUPPLYINLET,Air,3
 Node,286,LOBBY_1_Z7_COOLC-HEATCNODE,Air,6
 Node,287,LOBBY_1_Z7_HEATC-FANNODE,Air,5
 Node,288,LOBBY_1_Z7_SUPPLYEQUIPMENTOUTLETNODE,Air,3
 Node,289,CONFERENCE_1_Z8_SUPPLYINLET,Air,3
 Node,290,CONFERENCE_1_Z8_COOLC-HEATCNODE,Air,6
 Node,291,CONFERENCE_1_Z8_HEATC-FANNODE,Air,5
 Node,292,CONFERENCE_1_Z8_SUPPLYEQUIPMENTOUTLETNODE,Air,3
 Node,293,BREAK_ROOM_1_Z9_SUPPLYINLET,Air,3
 Node,294,BREAK_ROOM_1_Z9_COOLC-HEATCNODE,Air,6
 Node,295,BREAK_ROOM_1_Z9_HEATC-FANNODE,Air,5
 Node,296,BREAK_ROOM_1_Z9_SUPPLYEQUIPMENTOUTLETNODE,Air,3
 Node,297,MECHANICAL_1_Z10_SUPPLYINLET,Air,3
 Node,298,MECHANICAL_1_Z10_COOLC-HEATCNODE,Air,6
 Node,299,MECHANICAL_1_Z10_HEATC-FANNODE,Air,5
 Node,300,MECHANICAL_1_Z10_SUPPLYEQUIPMENTOUTLETNODE,Air,3
 Node,301,OFFICE_OPEN_1_Z11_SUPPLYINLET,Air,3
 Node,302,OFFICE_OPEN_1_Z11_COOLC-HEATCNODE,Air,6
 Node,303,OFFICE_OPEN_1_Z11_HEATC-FANNODE,Air,5
 Node,304,OFFICE_OPEN_1_Z11_SUPPLYEQUIPMENTOUTLETNODE,Air,3
 Node,305,OFFICE_PRIVATE_1_Z12_SUPPLYINLET,Air,3
 Node,306,OFFICE_PRIVATE_1_Z12_COOLC-HEATCNODE,Air,6
 Node,307,OFFICE_PRIVATE_1_Z12_HEATC-FANNODE,Air,5
 Node,308,OFFICE_PRIVATE_1_Z12_SUPPLYEQUIPMENTOUTLETNODE,Air,3
 Node,309,STORAGE_1_Z13_SUPPLYINLET,Air,3
 Node,310,STORAGE_1_Z13_COOLC-HEATCNODE,Air,6
 Node,311,STORAGE_1_Z13_HEATC-FANNODE,Air,5
 Node,312,STORAGE_1_Z13_SUPPLYEQUIPMENTOUTLETNODE,Air,3
 Node,313,LOBBY_2_Z14_SUPPLYINLET,Air,3
 Node,314,LOBBY_2_Z14_COOLC-HEATCNODE,Air,6
 Node,315,LOBBY_2_Z14_HEATC-FANNODE,Air,5
 Node,316,LOBBY_2_Z14_SUPPLYEQUIPMENTOUTLETNODE,Air,3
 Node,317,CONFERENCE_2_Z15_SUPPLYINLET,Air,3
 Node,318,CONFERENCE_2_Z15_COOLC-HEATCNODE,Air,6
 Node,319,CONFERENCE_2_Z15_HEATC-FANNODE,Air,5
 Node,320,CONFERENCE_2_Z15_SUPPLYEQUIPMENTOUTLETNODE,Air,3
 Node,321,BREAK_ROOM_2_Z16_SUPPLYINLET,Air,3
 Node,322,BREAK_ROOM_2_Z16_COOLC-HEATCNODE,Air,6
 Node,323,BREAK_ROOM_2_Z16_HEATC-FANNODE,Air,5
 Node,324,BREAK_ROOM_2_Z16_SUPPLYEQUIPMENTOUTLETNODE,Air,3
 Node,325,OFFICE_OPEN_2_Z17_SUPPLYINLET,Air,3
 Node,326,OFFICE_OPEN_2_Z17_COOLC-HEATCNODE,Air,6
 Node,327,OFFICE_OPEN_2_Z17_HEATC-FANNODE,Air,5
 Node,328,OFFICE_OPEN_2_Z17_SUPPLYEQUIPMENTOUTLETNODE,Air,3
 Node,329,OFFICE_PRIVATE_2_Z18_SUPPLYINLET,Air,3
 Node,330,OFFICE_PRIVATE_2_Z18_COOLC-HEATCNODE,Air,6
 Node,331,OFFICE_PRIVATE_2_Z18_HEATC-FANNODE,Air,5
 Node,332,OFFICE_PRIVATE_2_Z18_SUPPLYEQUIPMENTOUTLETNODE,Air,3
 Node,333,STORAGE_2_Z19_SUPPLYINLET,Air,3
 Node,334,STORAGE_2_Z19_COOLC-HEATCNODE,Air,6
 Node,335,STORAGE_2_Z19_HEATC-FANNODE,Air,5
 Node,336,STORAGE_2_Z19_SUPPLYEQUIPMENTOUTLETNODE,Air,3
 Node,337,LOBBY_3_Z20_SUPPLYINLET,Air,3
 Node,338,LOBBY_3_Z20_COOLC-HEATCNODE,Air,6
 Node,339,LOBBY_3_Z20_HEATC-FANNODE,Air,5
 Node,340,LOBBY_3_Z20_SUPPLYEQUIPMENTOUTLETNODE,Air,3
 Node,341,CONFERENCE_3_Z21_SUPPLYINLET,Air,3
 Node,342,CONFERENCE_3_Z21_COOLC-HEATCNODE,Air,6
 Node,343,CONFERENCE_3_Z21_HEATC-FANNODE,Air,5
 Node,344,CONFERENCE_3_Z21_SUPPLYEQUIPMENTOUTLETNODE,Air,3
 Node,345,BREAK_ROOM_3_Z22_SUPPLYINLET,Air,3
 Node,346,BREAK_ROOM_3_Z22_COOLC-HEATCNODE,Air,6
 Node,347,BREAK_ROOM_3_Z22_HEATC-FANNODE,Air,5
 Node,348,BREAK_ROOM_3_Z22_SUPPLYEQUIPMENTOUTLETNODE,Air,3
 Node,349,OFFICE_OPEN_3_Z23_SUPPLYINLET,Air,3
 Node,350,OFFICE_OPEN_3_Z23_COOLC-HEATCNODE,Air,6
 Node,351,OFFICE_OPEN_3_Z23_HEATC-FANNODE,Air,5
 Node,352,OFFICE_OPEN_3_Z23_SUPPLYEQUIPMENTOUTLETNODE,Air,3
 Node,353,OFFICE_PRIVATE_3_Z24_SUPPLYINLET,Air,3
 Node,354,OFFICE_PRIVATE_3_Z24_COOLC-HEATCNODE,Air,6
 Node,355,OFFICE_PRIVATE_3_Z24_HEATC-FANNODE,Air,5
 Node,356,OFFICE_PRIVATE_3_Z24_SUPPLYEQUIPMENTOUTLETNODE,Air,3
 Node,357,LOBBY_4_Z25_SUPPLYINLET,Air,3
 Node,358,LOBBY_4_Z25_COOLC-HEATCNODE,Air,6
 Node,359,LOBBY_4_Z25_HEATC-FANNODE,Air,5
 Node,360,LOBBY_4_Z25_SUPPLYEQUIPMENTOUTLETNODE,Air,3
 Node,361,CONFERENCE_4_Z26_SUPPLYINLET,Air,3
 Node,362,CONFERENCE_4_Z26_COOLC-HEATCNODE,Air,6
 Node,363,CONFERENCE_4_Z26_HEATC-FANNODE,Air,5
 Node,364,CONFERENCE_4_Z26_SUPPLYEQUIPMENTOUTLETNODE,Air,3
 Node,365,BREAK_ROOM_4_Z27_SUPPLYINLET,Air,3
 Node,366,BREAK_ROOM_4_Z27_COOLC-HEATCNODE,Air,6
 Node,367,BREAK_ROOM_4_Z27_HEATC-FANNODE,Air,5
 Node,368,BREAK_ROOM_4_Z27_SUPPLYEQUIPMENTOUTLETNODE,Air,3
 Node,369,MECHANICAL_4_Z28_SUPPLYINLET,Air,3
 Node,370,MECHANICAL_4_Z28_COOLC-HEATCNODE,Air,6
 Node,371,MECHANICAL_4_Z28_HEATC-FANNODE,Air,5
 Node,372,MECHANICAL_4_Z28_SUPPLYEQUIPMENTOUTLETNODE,Air,3
 Node,373,OFFICE_OPEN_4_Z29_SUPPLYINLET,Air,3
 Node,374,OFFICE_OPEN_4_Z29_COOLC-HEATCNODE,Air,6
 Node,375,OFFICE_OPEN_4_Z29_HEATC-FANNODE,Air,5
 Node,376,OFFICE_OPEN_4_Z29_SUPPLYEQUIPMENTOUTLETNODE,Air,3
 Node,377,OFFICE_PRIVATE_4_Z30_SUPPLYINLET,Air,3
 Node,378,OFFICE_PRIVATE_4_Z30_COOLC-HEATCNODE,Air,6
 Node,379,OFFICE_PRIVATE_4_Z30_HEATC-FANNODE,Air,5
 Node,380,OFFICE_PRIVATE_4_Z30_SUPPLYEQUIPMENTOUTLETNODE,Air,3
 Node,381,STORAGE_4_Z31_SUPPLYINLET,Air,3
 Node,382,STORAGE_4_Z31_COOLC-HEATCNODE,Air,6
 Node,383,STORAGE_4_Z31_HEATC-FANNODE,Air,5
 Node,384,STORAGE_4_Z31_SUPPLYEQUIPMENTOUTLETNODE,Air,3
 Node,385,LOBBY_5_Z32_SUPPLYINLET,Air,3
 Node,386,LOBBY_5_Z32_COOLC-HEATCNODE,Air,6
 Node,387,LOBBY_5_Z32_HEATC-FANNODE,Air,5
 Node,388,LOBBY_5_Z32_SUPPLYEQUIPMENTOUTLETNODE,Air,3
 Node,389,CONFERENCE_5_Z33_SUPPLYINLET,Air,3
 Node,390,CONFERENCE_5_Z33_COOLC-HEATCNODE,Air,6
 Node,391,CONFERENCE_5_Z33_HEATC-FANNODE,Air,5
 Node,392,CONFERENCE_5_Z33_SUPPLYEQUIPMENTOUTLETNODE,Air,3
 Node,393,BREAK_ROOM_5_Z34_SUPPLYINLET,Air,3
 Node,394,BREAK_ROOM_5_Z34_COOLC-HEATCNODE,Air,6
 Node,395,BREAK_ROOM_5_Z34_HEATC-FANNODE,Air,5
 Node,396,BREAK_ROOM_5_Z34_SUPPLYEQUIPMENTOUTLETNODE,Air,3
 Node,397,MECHANICAL_5_Z35_SUPPLYINLET,Air,3
 Node,398,MECHANICAL_5_Z35_COOLC-HEATCNODE,Air,6
 Node,399,MECHANICAL_5_Z35_HEATC-FANNODE,Air,5
 Node,400,MECHANICAL_5_Z35_SUPPLYEQUIPMENTOUTLETNODE,Air,3
 Node,401,OFFICE_OPEN_5_Z36_SUPPLYINLET,Air,3
 Node,402,OFFICE_OPEN_5_Z36_COOLC-HEATCNODE,Air,6
 Node,403,OFFICE_OPEN_5_Z36_HEATC-FANNODE,Air,5
 Node,404,OFFICE_OPEN_5_Z36_SUPPLYEQUIPMENTOUTLETNODE,Air,3
 Node,405,OFFICE_PRIVATE_5_Z37_SUPPLYINLET,Air,3
 Node,406,OFFICE_PRIVATE_5_Z37_COOLC-HEATCNODE,Air,6
 Node,407,OFFICE_PRIVATE_5_Z37_HEATC-FANNODE,Air,5
 Node,408,OFFICE_PRIVATE_5_Z37_SUPPLYEQUIPMENTOUTLETNODE,Air,3
 Node,409,STORAGE_5_Z38_SUPPLYINLET,Air,3
 Node,410,STORAGE_5_Z38_COOLC-HEATCNODE,Air,6
 Node,411,STORAGE_5_Z38_HEATC-FANNODE,Air,5
 Node,412,STORAGE_5_Z38_SUPPLYEQUIPMENTOUTLETNODE,Air,3
 Node,413,CONFERENCE_6_Z39_SUPPLYINLET,Air,3
 Node,414,CONFERENCE_6_Z39_COOLC-HEATCNODE,Air,6
 Node,415,CONFERENCE_6_Z39_HEATC-FANNODE,Air,5
 Node,416,CONFERENCE_6_Z39_SUPPLYEQUIPMENTOUTLETNODE,Air,3
 Node,417,BREAK_ROOM_6_Z40_SUPPLYINLET,Air,3
 Node,418,BREAK_ROOM_6_Z40_COOLC-HEATCNODE,Air,6
 Node,419,BREAK_ROOM_6_Z40_HEATC-FANNODE,Air,5
 Node,420,BREAK_ROOM_6_Z40_SUPPLYEQUIPMENTOUTLETNODE,Air,3
 Node,421,OFFICE_OPEN_6_Z41_SUPPLYINLET,Air,3
 Node,422,OFFICE_OPEN_6_Z41_COOLC-HEATCNODE,Air,6
 Node,423,OFFICE_OPEN_6_Z41_HEATC-FANNODE,Air,5
 Node,424,OFFICE_OPEN_6_Z41_SUPPLYEQUIPMENTOUTLETNODE,Air,3
 Node,425,OFFICE_PRIVATE_6_Z42_SUPPLYINLET,Air,3
 Node,426,OFFICE_PRIVATE_6_Z42_COOLC-HEATCNODE,Air,6
 Node,427,OFFICE_PRIVATE_6_Z42_HEATC-FANNODE,Air,5
 Node,428,OFFICE_PRIVATE_6_Z42_SUPPLYEQUIPMENTOUTLETNODE,Air,3
 Node,429,STORAGE_6_Z43_SUPPLYINLET,Air,3
 Node,430,STORAGE_6_Z43_COOLC-HEATCNODE,Air,6
 Node,431,STORAGE_6_Z43_HEATC-FANNODE,Air,5
 Node,432,STORAGE_6_Z43_SUPPLYEQUIPMENTOUTLETNODE,Air,3
 Node,433,LOBBY_7_Z44_SUPPLYINLET,Air,3
 Node,434,LOBBY_7_Z44_COOLC-HEATCNODE,Air,6
 Node,435,LOBBY_7_Z44_HEATC-FANNODE,Air,5
 Node,436,LOBBY_7_Z44_SUPPLYEQUIPMENTOUTLETNODE,Air,3
 Node,437,CONFERENCE_7_Z45_SUPPLYINLET,Air,3
 Node,438,CONFERENCE_7_Z45_COOLC-HEATCNODE,Air,6
 Node,439,CONFERENCE_7_Z45_HEATC-FANNODE,Air,5
 Node,440,CONFERENCE_7_Z45_SUPPLYEQUIPMENTOUTLETNODE,Air,3
 Node,441,BREAK_ROOM_7_Z46_SUPPLYINLET,Air,3
 Node,442,BREAK_ROOM_7_Z46_COOLC-HEATCNODE,Air,6
 Node,443,BREAK_ROOM_7_Z46_HEATC-FANNODE,Air,5
 Node,444,BREAK_ROOM_7_Z46_SUPPLYEQUIPMENTOUTLETNODE,Air,3
 Node,445,MECHANICAL_7_Z47_SUPPLYINLET,Air,3
 Node,446,MECHANICAL_7_Z47_COOLC-HEATCNODE,Air,6
 Node,447,MECHANICAL_7_Z47_HEATC-FANNODE,Air,5
 Node,448,MECHANICAL_7_Z47_SUPPLYEQUIPMENTOUTLETNODE,Air,3
 Node,449,OFFICE_OPEN_7_Z48_SUPPLYINLET,Air,3
 Node,450,OFFICE_OPEN_7_Z48_COOLC-HEATCNODE,Air,6
 Node,451,OFFICE_OPEN_7_Z48_HEATC-FANNODE,Air,5
 Node,452,OFFICE_OPEN_7_Z48_SUPPLYEQUIPMENTOUTLETNODE,Air,3
 Node,453,OFFICE_PRIVATE_7_Z49_SUPPLYINLET,Air,3
 Node,454,OFFICE_PRIVATE_7_Z49_COOLC-HEATCNODE,Air,6
 Node,455,OFFICE_PRIVATE_7_Z49_HEATC-FANNODE,Air,5
 Node,456,OFFICE_PRIVATE_7_Z49_SUPPLYEQUIPMENTOUTLETNODE,Air,3
 Node,457,STORAGE_7_Z50_SUPPLYINLET,Air,3
 Node,458,STORAGE_7_Z50_COOLC-HEATCNODE,Air,6
 Node,459,STORAGE_7_Z50_HEATC-FANNODE,Air,5
 Node,460,STORAGE_7_Z50_SUPPLYEQUIPMENTOUTLETNODE,Air,3
 Node,461,LOBBY_8_Z51_SUPPLYINLET,Air,3
 Node,462,LOBBY_8_Z51_COOLC-HEATCNODE,Air,6
 Node,463,LOBBY_8_Z51_HEATC-FANNODE,Air,5
 Node,464,LOBBY_8_Z51_SUPPLYEQUIPMENTOUTLETNODE,Air,3
 Node,465,CONFERENCE_8_Z52_SUPPLYINLET,Air,3
 Node,466,CONFERENCE_8_Z52_COOLC-HEATCNODE,Air,6
 Node,467,CONFERENCE_8_Z52_HEATC-FANNODE,Air,5
 Node,468,CONFERENCE_8_Z52_SUPPLYEQUIPMENTOUTLETNODE,Air,3
 Node,469,BREAK_ROOM_8_Z53_SUPPLYINLET,Air,3
 Node,470,BREAK_ROOM_8_Z53_COOLC-HEATCNODE,Air,6
 Node,471,BREAK_ROOM_8_Z53_HEATC-FANNODE,Air,5
 Node,472,BREAK_ROOM_8_Z53_SUPPLYEQUIPMENTOUTLETNODE,Air,3
 Node,473,MECHANICAL_8_Z54_SUPPLYINLET,Air,3
 Node,474,MECHANICAL_8_Z54_COOLC-HEATCNODE,Air,6
 Node,475,MECHANICAL_8_Z54_HEATC-FANNODE,Air,5
 Node,476,MECHANICAL_8_Z54_SUPPLYEQUIPMENTOUTLETNODE,Air,3
 Node,477,OFFICE_OPEN_8_Z55_SUPPLYINLET,Air,3
 Node,478,OFFICE_OPEN_8_Z55_COOLC-HEATCNODE,Air,6
 Node,479,OFFICE_OPEN_8_Z55_HEATC-FANNODE,Air,5
 Node,480,OFFICE_OPEN_8_Z55_SUPPLYEQUIPMENTOUTLETNODE,Air,3
 Node,481,STORAGE_8_Z56_SUPPLYINLET,Air,3
 Node,482,STORAGE_8_Z56_COOLC-HEATCNODE,Air,6
 Node,483,STORAGE_8_Z56_HEATC-FANNODE,Air,5
 Node,484,STORAGE_8_Z56_SUPPLYEQUIPMENTOUTLETNODE,Air,3
 Node,485,LOBBY_9_Z57_SUPPLYINLET,Air,3
 Node,486,LOBBY_9_Z57_COOLC-HEATCNODE,Air,6
 Node,487,LOBBY_9_Z57_HEATC-FANNODE,Air,5
 Node,488,LOBBY_9_Z57_SUPPLYEQUIPMENTOUTLETNODE,Air,3
 Node,489,CONFERENCE_9_Z58_SUPPLYINLET,Air,3
 Node,490,CONFERENCE_9_Z58_COOLC-HEATCNODE,Air,6
 Node,491,CONFERENCE_9_Z58_HEATC-FANNODE,Air,5
 Node,492,CONFERENCE_9_Z58_SUPPLYEQUIPMENTOUTLETNODE,Air,3
 Node,493,BREAK_ROOM_9_Z59_SUPPLYINLET,Air,3
 Node,494,BREAK_ROOM_9_Z59_COOLC-HEATCNODE,Air,6
 Node,495,BREAK_ROOM_9_Z59_HEATC-FANNODE,Air,5
 Node,496,BREAK_ROOM_9_Z59_SUPPLYEQUIPMENTOUTLETNODE,Air,3
 Node,497,MECHANICAL_9_Z60_SUPPLYINLET,Air,3
 Node,498,MECHANICAL_9_Z60_COOLC-HEATCNODE,Air,6
 Node,499,MECHANICAL_9_Z60_HEATC-FANNODE,Air,5
 Node,500,MECHANICAL_9_Z60_SUPPLYEQUIPMENTOUTLETNODE,Air,3
 Node,501,OFFICE_OPEN_9_Z61_SUPPLYINLET,Air,3
 Node,502,OFFICE_OPEN_9_Z61_COOLC-HEATCNODE,Air,6
 Node,503,OFFICE_OPEN_9_Z61_HEATC-FANNODE,Air,5
 Node,504,OFFICE_OPEN_9_Z61_SUPPLYEQUIPMENTOUTLETNODE,Air,3
 Node,505,STORAGE_9_Z62_SUPPLYINLET,Air,3
 Node,506,STORAGE_9_Z62_COOLC-HEATCNODE,Air,6
 Node,507,STORAGE_9_Z62_HEATC-FANNODE,Air,5
 Node,508,STORAGE_9_Z62_SUPPLYEQUIPMENTOUTLETNODE,Air,3
 Node,509,LOBBY_10_Z63_SUPPLYINLET,Air,3
 Node,510,LOBBY_10_Z63_COOLC-HEATCNODE,Air,6
 Node,511,LOBBY_10_Z63_HEATC-FANNODE,Air,5
 Node,512,LOBBY_10_Z63_SUPPLYEQUIPMENTOUTLETNODE,Air,3
 Node,513,CONFERENCE_10_Z64_SUPPLYINLET,Air,3
 Node,514,CONFERENCE_10_Z64_COOLC-HEATCNODE,Air,6
 Node,515,CONFERENCE_10_Z64_HEATC-FANNODE,Air,5
 Node,516,CONFERENCE_10_Z64_SUPPLYEQUIPMENTOUTLETNODE,Air,3
 Node,517,BREAK_ROOM_10_Z65_SUPPLYINLET,Air,3
 Node,518,BREAK_ROOM_10_Z65_COOLC-HEATCNODE,Air,6
 Node,519,BREAK_ROOM_10_Z65_HEATC-FANNODE,Air,5
 Node,520,BREAK_ROOM_10_Z65_SUPPLYEQUIPMENTOUTLETNODE,Air,3
 Node,521,MECHANICAL_10_Z66_SUPPLYINLET,Air,3
 Node,522,MECHANICAL_10_Z66_COOLC-HEATCNODE,Air,6
 Node,523,MECHANICAL_10_Z66_HEATC-FANNODE,Air,5
 Node,524,MECHANICAL_10_Z66_SUPPLYEQUIPMENTOUTLETNODE,Air,3
 Node,525,OFFICE_OPEN_10_Z67_SUPPLYINLET,Air,3
 Node,526,OFFICE_OPEN_10_Z67_COOLC-HEATCNODE,Air,6
 Node,527,OFFICE_OPEN_10_Z67_HEATC-FANNODE,Air,5
 Node,528,OFFICE_OPEN_10_Z67_SUPPLYEQUIPMENTOUTLETNODE,Air,3
 Node,529,OFFICE_PRIVATE_10_Z68_SUPPLYINLET,Air,3
 Node,530,OFFICE_PRIVATE_10_Z68_COOLC-HEATCNODE,Air,6
 Node,531,OFFICE_PRIVATE_10_Z68_HEATC-FANNODE,Air,5
 Node,532,OFFICE_PRIVATE_10_Z68_SUPPLYEQUIPMENTOUTLETNODE,Air,3
 Node,533,STORAGE_10_Z69_SUPPLYINLET,Air,3
 Node,534,STORAGE_10_Z69_COOLC-HEATCNODE,Air,6
 Node,535,STORAGE_10_Z69_HEATC-FANNODE,Air,5
 Node,536,STORAGE_10_Z69_SUPPLYEQUIPMENTOUTLETNODE,Air,3
 Node,537,LOBBY_11_Z70_SUPPLYINLET,Air,3
 Node,538,LOBBY_11_Z70_COOLC-HEATCNODE,Air,6
 Node,539,LOBBY_11_Z70_HEATC-FANNODE,Air,5
 Node,540,LOBBY_11_Z70_SUPPLYEQUIPMENTOUTLETNODE,Air,3
 Node,541,CONFERENCE_11_Z71_SUPPLYINLET,Air,3
 Node,542,CONFERENCE_11_Z71_COOLC-HEATCNODE,Air,6
 Node,543,CONFERENCE_11_Z71_HEATC-FANNODE,Air,5
 Node,544,CONFERENCE_11_Z71_SUPPLYEQUIPMENTOUTLETNODE,Air,3
 Node,545,BREAK_ROOM_11_Z72_SUPPLYINLET,Air,3
 Node,546,BREAK_ROOM_11_Z72_COOLC-HEATCNODE,Air,6
 Node,547,BREAK_ROOM_11_Z72_HEATC-FANNODE,Air,5
 Node,548,BREAK_ROOM_11_Z72_SUPPLYEQUIPMENTOUTLETNODE,Air,3
 Node,549,MECHANICAL_11_Z73_SUPPLYINLET,Air,3
 Node,550,MECHANICAL_11_Z73_COOLC-HEATCNODE,Air,6
 Node,551,MECHANICAL_11_Z73_HEATC-FANNODE,Air,5
 Node,552,MECHANICAL_11_Z73_SUPPLYEQUIPMENTOUTLETNODE,Air,3
 Node,553,OFFICE_OPEN_11_Z74_SUPPLYINLET,Air,3
 Node,554,OFFICE_OPEN_11_Z74_COOLC-HEATCNODE,Air,6
 Node,555,OFFICE_OPEN_11_Z74_HEATC-FANNODE,Air,5
 Node,556,OFFICE_OPEN_11_Z74_SUPPLYEQUIPMENTOUTLETNODE,Air,3
 Node,557,OFFICE_PRIVATE_11_Z75_SUPPLYINLET,Air,3
 Node,558,OFFICE_PRIVATE_11_Z75_COOLC-HEATCNODE,Air,6
 Node,559,OFFICE_PRIVATE_11_Z75_HEATC-FANNODE,Air,5
 Node,560,OFFICE_PRIVATE_11_Z75_SUPPLYEQUIPMENTOUTLETNODE,Air,3
 Node,561,STORAGE_11_Z76_SUPPLYINLET,Air,3
 Node,562,STORAGE_11_Z76_COOLC-HEATCNODE,Air,6
 Node,563,STORAGE_11_Z76_HEATC-FANNODE,Air,5
 Node,564,STORAGE_11_Z76_SUPPLYEQUIPMENTOUTLETNODE,Air,3
 Node,565,LOBBY_12_Z77_SUPPLYINLET,Air,3
 Node,566,LOBBY_12_Z77_COOLC-HEATCNODE,Air,6
 Node,567,LOBBY_12_Z77_HEATC-FANNODE,Air,5
 Node,568,LOBBY_12_Z77_SUPPLYEQUIPMENTOUTLETNODE,Air,3
 Node,569,CONFERENCE_12_Z78_SUPPLYINLET,Air,3
 Node,570,CONFERENCE_12_Z78_COOLC-HEATCNODE,Air,6
 Node,571,CONFERENCE_12_Z78_HEATC-FANNODE,Air,5
 Node,572,CONFERENCE_12_Z78_SUPPLYEQUIPMENTOUTLETNODE,Air,3
 Node,573,BREAK_ROOM_12_Z79_SUPPLYINLET,Air,3
 Node,574,BREAK_ROOM_12_Z79_COOLC-HEATCNODE,Air,6
 Node,575,BREAK_ROOM_12_Z79_HEATC-FANNODE,Air,5
 Node,576,BREAK_ROOM_12_Z79_SUPPLYEQUIPMENTOUTLETNODE,Air,3
 Node,577,OFFICE_OPEN_12_Z80_SUPPLYINLET,Air,3
 Node,578,OFFICE_OPEN_12_Z80_COOLC-HEATCNODE,Air,6
 Node,579,OFFICE_OPEN_12_Z80_HEATC-FANNODE,Air,5
 Node,580,OFFICE_OPEN_12_Z80_SUPPLYEQUIPMENTOUTLETNODE,Air,3
 Node,581,OFFICE_PRIVATE_12_Z81_SUPPLYINLET,Air,3
 Node,582,OFFICE_PRIVATE_12_Z81_COOLC-HEATCNODE,Air,6
 Node,583,OFFICE_PRIVATE_12_Z81_HEATC-FANNODE,Air,5
 Node,584,OFFICE_PRIVATE_12_Z81_SUPPLYEQUIPMENTOUTLETNODE,Air,3
 Node,585,STORAGE_12_Z82_SUPPLYINLET,Air,3
 Node,586,STORAGE_12_Z82_COOLC-HEATCNODE,Air,6
 Node,587,STORAGE_12_Z82_HEATC-FANNODE,Air,5
 Node,588,STORAGE_12_Z82_SUPPLYEQUIPMENTOUTLETNODE,Air,3
 Node,589,LOBBY_13_Z83_SUPPLYINLET,Air,3
 Node,590,LOBBY_13_Z83_COOLC-HEATCNODE,Air,6
 Node,591,LOBBY_13_Z83_HEATC-FANNODE,Air,5
 Node,592,LOBBY_13_Z83_SUPPLYEQUIPMENTOUTLETNODE,Air,3
 Node,593,CONFERENCE_13_Z84_SUPPLYINLET,Air,3
 Node,594,CONFERENCE_13_Z84_COOLC-HEATCNODE,Air,6
 Node,595,CONFERENCE_13_Z84_HEATC-FANNODE,Air,5
 Node,596,CONFERENCE_13_Z84_SUPPLYEQUIPMENTOUTLETNODE,Air,3
 Node,597,BREAK_ROOM_13_Z85_SUPPLYINLET,Air,3
 Node,598,BREAK_ROOM_13_Z85_COOLC-HEATCNODE,Air,6
 Node,599,BREAK_ROOM_13_Z85_HEATC-FANNODE,Air,5
 Node,600,BREAK_ROOM_13_Z85_SUPPLYEQUIPMENTOUTLETNODE,Air,3
 Node,601,MECHANICAL_13_Z86_SUPPLYINLET,Air,3
 Node,602,MECHANICAL_13_Z86_COOLC-HEATCNODE,Air,6
 Node,603,MECHANICAL_13_Z86_HEATC-FANNODE,Air,5
 Node,604,MECHANICAL_13_Z86_SUPPLYEQUIPMENTOUTLETNODE,Air,3
 Node,605,OFFICE_OPEN_13_Z87_SUPPLYINLET,Air,3
 Node,606,OFFICE_OPEN_13_Z87_COOLC-HEATCNODE,Air,6
 Node,607,OFFICE_OPEN_13_Z87_HEATC-FANNODE,Air,5
 Node,608,OFFICE_OPEN_13_Z87_SUPPLYEQUIPMENTOUTLETNODE,Air,3
 Node,609,OFFICE_PRIVATE_13_Z88_SUPPLYINLET,Air,3
 Node,610,OFFICE_PRIVATE_13_Z88_COOLC-HEATCNODE,Air,6
 Node,611,OFFICE_PRIVATE_13_Z88_HEATC-FANNODE,Air,5
 Node,612,OFFICE_PRIVATE_13_Z88_SUPPLYEQUIPMENTOUTLETNODE,Air,3
 Node,613,LOBBY_14_Z89_SUPPLYINLET,Air,3
 Node,614,LOBBY_14_Z89_COOLC-HEATCNODE,Air,6
 Node,615,LOBBY_14_Z89_HEATC-FANNODE,Air,5
 Node,616,LOBBY_14_Z89_SUPPLYEQUIPMENTOUTLETNODE,Air,3
 Node,617,CONFERENCE_14_Z90_SUPPLYINLET,Air,3
 Node,618,CONFERENCE_14_Z90_COOLC-HEATCNODE,Air,6
 Node,619,CONFERENCE_14_Z90_HEATC-FANNODE,Air,5
 Node,620,CONFERENCE_14_Z90_SUPPLYEQUIPMENTOUTLETNODE,Air,3
 Node,621,BREAK_ROOM_14_Z91_SUPPLYINLET,Air,3
 Node,622,BREAK_ROOM_14_Z91_COOLC-HEATCNODE,Air,6
 Node,623,BREAK_ROOM_14_Z91_HEATC-FANNODE,Air,5
 Node,624,BREAK_ROOM_14_Z91_SUPPLYEQUIPMENTOUTLETNODE,Air,3
 Node,625,MECHANICAL_14_Z92_SUPPLYINLET,Air,3
 Node,626,MECHANICAL_14_Z92_COOLC-HEATCNODE,Air,6
 Node,627,MECHANICAL_14_Z92_HEATC-FANNODE,Air,5
 Node,628,MECHANICAL_14_Z92_SUPPLYEQUIPMENTOUTLETNODE,Air,3
 Node,629,OFFICE_PRIVATE_14_Z93_SUPPLYINLET,Air,3
 Node,630,OFFICE_PRIVATE_14_Z93_COOLC-HEATCNODE,Air,6
 Node,631,OFFICE_PRIVATE_14_Z93_HEATC-FANNODE,Air,5
 Node,632,OFFICE_PRIVATE_14_Z93_SUPPLYEQUIPMENTOUTLETNODE,Air,3
 Node,633,STORAGE_14_Z94_SUPPLYINLET,Air,3
 Node,634,STORAGE_14_Z94_COOLC-HEATCNODE,Air,6
 Node,635,STORAGE_14_Z94_HEATC-FANNODE,Air,5
 Node,636,STORAGE_14_Z94_SUPPLYEQUIPMENTOUTLETNODE,Air,3
 Node,637,LOBBY_15_Z95_SUPPLYINLET,Air,3
 Node,638,LOBBY_15_Z95_COOLC-HEATCNODE,Air,6
 Node,639,LOBBY_15_Z95_HEATC-FANNODE,Air,5
 Node,640,LOBBY_15_Z95_SUPPLYEQUIPMENTOUTLETNODE,Air,3
 Node,641,CONFERENCE_15_Z96_SUPPLYINLET,Air,3
 Node,642,CONFERENCE_15_Z96_COOLC-HEATCNODE,Air,6
 Node,643,CONFERENCE_15_Z96_HEATC-FANNODE,Air,5
 Node,644,CONFERENCE_15_Z96_SUPPLYEQUIPMENTOUTLETNODE,Air,3
 Node,645,BREAK_ROOM_15_Z97_SUPPLYINLET,Air,3
 Node,646,BREAK_ROOM_15_Z97_COOLC-HEATCNODE,Air,6
 Node,647,BREAK_ROOM_15_Z97_HEATC-FANNODE,Air,5
 Node,648,BREAK_ROOM_15_Z97_SUPPLYEQUIPMENTOUTLETNODE,Air,3
 Node,649,MECHANICAL_15_Z98_SUPPLYINLET,Air,3
 Node,650,MECHANICAL_15_Z98_COOLC-HEATCNODE,Air,6
 Node,651,MECHANICAL_15_Z98_HEATC-FANNODE,Air,5
 Node,652,MECHANICAL_15_Z98_SUPPLYEQUIPMENTOUTLETNODE,Air,3
 Node,653,OFFICE_OPEN_15_Z99_SUPPLYINLET,Air,3
 Node,654,OFFICE_OPEN_15_Z99_COOLC-HEATCNODE,Air,6
 Node,655,OFFICE_OPEN_15_Z99_HEATC-FANNODE,Air,5
 Node,656,OFFICE_OPEN_15_Z99_SUPPLYEQUIPMENTOUTLETNODE,Air,3
 Node,657,OFFICE_PRIVATE_15_Z100_SUPPLYINLET,Air,3
 Node,658,OFFICE_PRIVATE_15_Z100_COOLC-HEATCNODE,Air,6
 Node,659,OFFICE_PRIVATE_15_Z100_HEATC-FANNODE,Air,5
 Node,660,OFFICE_PRIVATE_15_Z100_SUPPLYEQUIPMENTOUTLETNODE,Air,3
 Node,661,STORAGE_15_Z101_SUPPLYINLET,Air,3
 Node,662,STORAGE_15_Z101_COOLC-HEATCNODE,Air,6
 Node,663,STORAGE_15_Z101_HEATC-FANNODE,Air,5
 Node,664,STORAGE_15_Z101_SUPPLYEQUIPMENTOUTLETNODE,Air,3
 Node,665,LOBBY_16_Z102_SUPPLYINLET,Air,3
 Node,666,LOBBY_16_Z102_COOLC-HEATCNODE,Air,6
 Node,667,LOBBY_16_Z102_HEATC-FANNODE,Air,5
 Node,668,LOBBY_16_Z102_SUPPLYEQUIPMENTOUTLETNODE,Air,3
 Node,669,CONFERENCE_16_Z103_SUPPLYINLET,Air,3
 Node,670,CONFERENCE_16_Z103_COOLC-HEATCNODE,Air,6
 Node,671,CONFERENCE_16_Z103_HEATC-FANNODE,Air,5
 Node,672,CONFERENCE_16_Z103_SUPPLYEQUIPMENTOUTLETNODE,Air,3
 Node,673,BREAK_ROOM_16_Z104_SUPPLYINLET,Air,3
 Node,674,BREAK_ROOM_16_Z104_COOLC-HEATCNODE,Air,6
 Node,675,BREAK_ROOM_16_Z104_HEATC-FANNODE,Air,5
 Node,676,BREAK_ROOM_16_Z104_SUPPLYEQUIPMENTOUTLETNODE,Air,3
 Node,677,MECHANICAL_16_Z105_SUPPLYINLET,Air,3
 Node,678,MECHANICAL_16_Z105_COOLC-HEATCNODE,Air,6
 Node,679,MECHANICAL_16_Z105_HEATC-FANNODE,Air,5
 Node,680,MECHANICAL_16_Z105_SUPPLYEQUIPMENTOUTLETNODE,Air,3
 Node,681,OFFICE_OPEN_16_Z106_SUPPLYINLET,Air,3
 Node,682,OFFICE_OPEN_16_Z106_COOLC-HEATCNODE,Air,6
 Node,683,OFFICE_OPEN_16_Z106_HEATC-FANNODE,Air,5
 Node,684,OFFICE_OPEN_16_Z106_SUPPLYEQUIPMENTOUTLETNODE,Air,3
 Node,685,OFFICE_PRIVATE_16_Z107_SUPPLYINLET,Air,3
 Node,686,OFFICE_PRIVATE_16_Z107_COOLC-HEATCNODE,Air,6
 Node,687,OFFICE_PRIVATE_16_Z107_HEATC-FANNODE,Air,5
 Node,688,OFFICE_PRIVATE_16_Z107_SUPPLYEQUIPMENTOUTLETNODE,Air,3
 Node,689,STORAGE_16_Z108_SUPPLYINLET,Air,3
 Node,690,STORAGE_16_Z108_COOLC-HEATCNODE,Air,6
 Node,691,STORAGE_16_Z108_HEATC-FANNODE,Air,5
 Node,692,STORAGE_16_Z108_SUPPLYEQUIPMENTOUTLETNODE,Air,3
 Node,693,LOBBY_17_Z109_SUPPLYINLET,Air,3
 Node,694,LOBBY_17_Z109_COOLC-HEATCNODE,Air,6
 Node,695,LOBBY_17_Z109_HEATC-FANNODE,Air,5
 Node,696,LOBBY_17_Z109_SUPPLYEQUIPMENTOUTLETNODE,Air,3
 Node,697,CONFERENCE_17_Z110_SUPPLYINLET,Air,3
 Node,698,CONFERENCE_17_Z110_COOLC-HEATCNODE,Air,6
 Node,699,CONFERENCE_17_Z110_HEATC-FANNODE,Air,5
 Node,700,CONFERENCE_17_Z110_SUPPLYEQUIPMENTOUTLETNODE,Air,3
 Node,701,BREAK_ROOM_17_Z111_SUPPLYINLET,Air,3
 Node,702,BREAK_ROOM_17_Z111_COOLC-HEATCNODE,Air,6
 Node,703,BREAK_ROOM_17_Z111_HEATC-FANNODE,Air,5
 Node,704,BREAK_ROOM_17_Z111_SUPPLYEQUIPMENTOUTLETNODE,Air,3
 Node,705,OFFICE_OPEN_17_Z112_SUPPLYINLET,Air,3
 Node,706,OFFICE_OPEN_17_Z112_COOLC-HEATCNODE,Air,6
 Node,707,OFFICE_OPEN_17_Z112_HEATC-FANNODE,Air,5
 Node,708,OFFICE_OPEN_17_Z112_SUPPLYEQUIPMENTOUTLETNODE,Air,3
 Node,709,OFFICE_PRIVATE_17_Z113_SUPPLYINLET,Air,3
 Node,710,OFFICE_PRIVATE_17_Z113_COOLC-HEATCNODE,Air,6
 Node,711,OFFICE_PRIVATE_17_Z113_HEATC-FANNODE,Air,5
 Node,712,OFFICE_PRIVATE_17_Z113_SUPPLYEQUIPMENTOUTLETNODE,Air,3
 Node,713,STORAGE_17_Z114_SUPPLYINLET,Air,3
 Node,714,STORAGE_17_Z114_COOLC-HEATCNODE,Air,6
 Node,715,STORAGE_17_Z114_HEATC-FANNODE,Air,5
 Node,716,STORAGE_17_Z114_SUPPLYEQUIPMENTOUTLETNODE,Air,3
 Node,717,LOBBY_18_Z115_SUPPLYINLET,Air,3
 Node,718,LOBBY_18_Z115_COOLC-HEATCNODE,Air,6
 Node,719,LOBBY_18_Z115_HEATC-FANNODE,Air,5
 Node,720,LOBBY_18_Z115_SUPPLYEQUIPMENTOUTLETNODE,Air,3
 Node,721,CONFERENCE_18_Z116_SUPPLYINLET,Air,3
 Node,722,CONFERENCE_18_Z116_COOLC-HEATCNODE,Air,6
 Node,723,CONFERENCE_18_Z116_HEATC-FANNODE,Air,5
 Node,724,CONFERENCE_18_Z116_SUPPLYEQUIPMENTOUTLETNODE,Air,3
 Node,725,BREAK_ROOM_18_Z117_SUPPLYINLET,Air,3
 Node,726,BREAK_ROOM_18_Z117_COOLC-HEATCNODE,Air,6
 Node,727,BREAK_ROOM_18_Z117_HEATC-FANNODE,Air,5
 Node,728,BREAK_ROOM_18_Z117_SUPPLYEQUIPMENTOUTLETNODE,Air,3
 Node,729,MECHANICAL_18_Z118_SUPPLYINLET,Air,3
 Node,730,MECHANICAL_18_Z118_COOLC-HEATCNODE,Air,6
 Node,731,MECHANICAL_18_Z118_HEATC-FANNODE,Air,5
 Node,732,MECHANICAL_18_Z118_SUPPLYEQUIPMENTOUTLETNODE,Air,3
 Node,733,OFFICE_OPEN_18_Z119_SUPPLYINLET,Air,3
 Node,734,OFFICE_OPEN_18_Z119_COOLC-HEATCNODE,Air,6
 Node,735,OFFICE_OPEN_18_Z119_HEATC-FANNODE,Air,5
 Node,736,OFFICE_OPEN_18_Z119_SUPPLYEQUIPMENTOUTLETNODE,Air,3
 Node,737,STORAGE_18_Z120_SUPPLYINLET,Air,3
 Node,738,STORAGE_18_Z120_COOLC-HEATCNODE,Air,6
 Node,739,STORAGE_18_Z120_HEATC-FANNODE,Air,5
 Node,740,STORAGE_18_Z120_SUPPLYEQUIPMENTOUTLETNODE,Air,3
 Node,741,LOBBY_19_Z121_SUPPLYINLET,Air,3
 Node,742,LOBBY_19_Z121_COOLC-HEATCNODE,Air,6
 Node,743,LOBBY_19_Z121_HEATC-FANNODE,Air,5
 Node,744,LOBBY_19_Z121_SUPPLYEQUIPMENTOUTLETNODE,Air,3
 Node,745,CONFERENCE_19_Z122_SUPPLYINLET,Air,3
 Node,746,CONFERENCE_19_Z122_COOLC-HEATCNODE,Air,6
 Node,747,CONFERENCE_19_Z122_HEATC-FANNODE,Air,5
 Node,748,CONFERENCE_19_Z122_SUPPLYEQUIPMENTOUTLETNODE,Air,3
 Node,749,BREAK_ROOM_19_Z123_SUPPLYINLET,Air,3
 Node,750,BREAK_ROOM_19_Z123_COOLC-HEATCNODE,Air,6
 Node,751,BREAK_ROOM_19_Z123_HEATC-FANNODE,Air,5
 Node,752,BREAK_ROOM_19_Z123_SUPPLYEQUIPMENTOUTLETNODE,Air,3
 Node,753,MECHANICAL_19_Z124_SUPPLYINLET,Air,3
 Node,754,MECHANICAL_19_Z124_COOLC-HEATCNODE,Air,6
 Node,755,MECHANICAL_19_Z124_HEATC-FANNODE,Air,5
 Node,756,MECHANICAL_19_Z124_SUPPLYEQUIPMENTOUTLETNODE,Air,3
 Node,757,OFFICE_OPEN_19_Z125_SUPPLYINLET,Air,3
 Node,758,OFFICE_OPEN_19_Z125_COOLC-HEATCNODE,Air,6
 Node,759,OFFICE_OPEN_19_Z125_HEATC-FANNODE,Air,5
 Node,760,OFFICE_OPEN_19_Z125_SUPPLYEQUIPMENTOUTLETNODE,Air,3
 Node,761,OFFICE_PRIVATE_19_Z126_SUPPLYINLET,Air,3
 Node,762,OFFICE_PRIVATE_19_Z126_COOLC-HEATCNODE,Air,6
 Node,763,OFFICE_PRIVATE_19_Z126_HEATC-FANNODE,Air,5
 Node,764,OFFICE_PRIVATE_19_Z126_SUPPLYEQUIPMENTOUTLETNODE,Air,3
 Node,765,STORAGE_19_Z127_SUPPLYINLET,Air,3
 Node,766,STORAGE_19_Z127_COOLC-HEATCNODE,Air,6
 Node,767,STORAGE_19_Z127_HEATC-FANNODE,Air,5
 Node,768,STORAGE_19_Z127_SUPPLYEQUIPMENTOUTLETNODE,Air,3
 Node,769,LOBBY_20_Z128_SUPPLYINLET,Air,3
 Node,770,LOBBY_20_Z128_COOLC-HEATCNODE,Air,6
 Node,771,LOBBY_20_Z128_HEATC-FANNODE,Air,5
 Node,772,LOBBY_20_Z128_SUPPLYEQUIPMENTOUTLETNODE,Air,3
 Node,773,CONFERENCE_20_Z129_SUPPLYINLET,Air,3
 Node,774,CONFERENCE_20_Z129_COOLC-HEATCNODE,Air,6
 Node,775,CONFERENCE_20_Z129_HEATC-FANNODE,Air,5
 Node,776,CONFERENCE_20_Z129_SUPPLYEQUIPMENTOUTLETNODE,Air,3
 Node,777,BREAK_ROOM_20_Z130_SUPPLYINLET,Air,3
 Node,778,BREAK_ROOM_20_Z130_COOLC-HEATCNODE,Air,6
 Node,779,BREAK_ROOM_20_Z130_HEATC-FANNODE,Air,5
 Node,780,BREAK_ROOM_20_Z130_SUPPLYEQUIPMENTOUTLETNODE,Air,3
 Node,781,MECHANICAL_20_Z131_SUPPLYINLET,Air,3
 Node,782,MECHANICAL_20_Z131_COOLC-HEATCNODE,Air,6
 Node,783,MECHANICAL_20_Z131_HEATC-FANNODE,Air,5
 Node,784,MECHANICAL_20_Z131_SUPPLYEQUIPMENTOUTLETNODE,Air,3
 Node,785,OFFICE_OPEN_20_Z132_SUPPLYINLET,Air,3
 Node,786,OFFICE_OPEN_20_Z132_COOLC-HEATCNODE,Air,6
 Node,787,OFFICE_OPEN_20_Z132_HEATC-FANNODE,Air,5
 Node,788,OFFICE_OPEN_20_Z132_SUPPLYEQUIPMENTOUTLETNODE,Air,3
 Node,789,OFFICE_PRIVATE_20_Z133_SUPPLYINLET,Air,3
 Node,790,OFFICE_PRIVATE_20_Z133_COOLC-HEATCNODE,Air,6
 Node,791,OFFICE_PRIVATE_20_Z133_HEATC-FANNODE,Air,5
 Node,792,OFFICE_PRIVATE_20_Z133_SUPPLYEQUIPMENTOUTLETNODE,Air,3
 Node,793,STORAGE_20_Z134_SUPPLYINLET,Air,3
 Node,794,STORAGE_20_Z134_COOLC-HEATCNODE,Air,6
 Node,795,STORAGE_20_Z134_HEATC-FANNODE,Air,5
 Node,796,STORAGE_20_Z134_SUPPLYEQUIPMENTOUTLETNODE,Air,3
 Node,797,LOBBY_21_Z135_SUPPLYINLET,Air,3
 Node,798,LOBBY_21_Z135_COOLC-HEATCNODE,Air,6
 Node,799,LOBBY_21_Z135_HEATC-FANNODE,Air,5
 Node,800,LOBBY_21_Z135_SUPPLYEQUIPMENTOUTLETNODE,Air,3
 Node,801,CONFERENCE_21_Z136_SUPPLYINLET,Air,3
 Node,802,CONFERENCE_21_Z136_COOLC-HEATCNODE,Air,6
 Node,803,CONFERENCE_21_Z136_HEATC-FANNODE,Air,5
 Node,804,CONFERENCE_21_Z136_SUPPLYEQUIPMENTOUTLETNODE,Air,3
 Node,805,MECHANICAL_21_Z137_SUPPLYINLET,Air,3
 Node,806,MECHANICAL_21_Z137_COOLC-HEATCNODE,Air,6
 Node,807,MECHANICAL_21_Z137_HEATC-FANNODE,Air,5
 Node,808,MECHANICAL_21_Z137_SUPPLYEQUIPMENTOUTLETNODE,Air,3
 Node,809,OFFICE_OPEN_21_Z138_SUPPLYINLET,Air,3
 Node,810,OFFICE_OPEN_21_Z138_COOLC-HEATCNODE,Air,6
 Node,811,OFFICE_OPEN_21_Z138_HEATC-FANNODE,Air,5
 Node,812,OFFICE_OPEN_21_Z138_SUPPLYEQUIPMENTOUTLETNODE,Air,3
 Node,813,STORAGE_21_Z139_SUPPLYINLET,Air,3
 Node,814,STORAGE_21_Z139_COOLC-HEATCNODE,Air,6
 Node,815,STORAGE_21_Z139_HEATC-FANNODE,Air,5
 Node,816,STORAGE_21_Z139_SUPPLYEQUIPMENTOUTLETNODE,Air,3
 Node,817,LOBBY_22_Z140_SUPPLYINLET,Air,3
 Node,818,LOBBY_22_Z140_COOLC-HEATCNODE,Air,6
 Node,819,LOBBY_22_Z140_HEATC-FANNODE,Air,5
 Node,820,LOBBY_22_Z140_SUPPLYEQUIPMENTOUTLETNODE,Air,3
 Node,821,CONFERENCE_22_Z141_SUPPLYINLET,Air,3
 Node,822,CONFERENCE_22_Z141_COOLC-HEATCNODE,Air,6
 Node,823,CONFERENCE_22_Z141_HEATC-FANNODE,Air,5
 Node,824,CONFERENCE_22_Z141_SUPPLYEQUIPMENTOUTLETNODE,Air,3
 Node,825,BREAK_ROOM_22_Z142_SUPPLYINLET,Air,3
 Node,826,BREAK_ROOM_22_Z142_COOLC-HEATCNODE,Air,6
 Node,827,BREAK_ROOM_22_Z142_HEATC-FANNODE,Air,5
 Node,828,BREAK_ROOM_22_Z142_SUPPLYEQUIPMENTOUTLETNODE,Air,3
 Node,829,MECHANICAL_22_Z143_SUPPLYINLET,Air,3
 Node,830,MECHANICAL_22_Z143_COOLC-HEATCNODE,Air,6
 Node,831,MECHANICAL_22_Z143_HEATC-FANNODE,Air,5
 Node,832,MECHANICAL_22_Z143_SUPPLYEQUIPMENTOUTLETNODE,Air,3
 Node,833,OFFICE_OPEN_22_Z144_SUPPLYINLET,Air,3
 Node,834,OFFICE_OPEN_22_Z144_COOLC-HEATCNODE,Air,6
 Node,835,OFFICE_OPEN_22_Z144_HEATC-FANNODE,Air,5
 Node,836,OFFICE_OPEN_22_Z144_SUPPLYEQUIPMENTOUTLETNODE,Air,3
 Node,837,OFFICE_PRIVATE_22_Z145_SUPPLYINLET,Air,3
 Node,838,OFFICE_PRIVATE_22_Z145_COOLC-HEATCNODE,Air,6
 Node,839,OFFICE_PRIVATE_22_Z145_HEATC-FANNODE,Air,5
 Node,840,OFFICE_PRIVATE_22_Z145_SUPPLYEQUIPMENTOUTLETNODE,Air,3
 Node,841,STORAGE_22_Z146_SUPPLYINLET,Air,3
 Node,842,STORAGE_22_Z146_COOLC-HEATCNODE,Air,6
 Node,843,STORAGE_22_Z146_HEATC-FANNODE,Air,5
 Node,844,STORAGE_22_Z146_SUPPLYEQUIPMENTOUTLETNODE,Air,3
 Node,845,LOBBY_23_Z147_SUPPLYINLET,Air,3
 Node,846,LOBBY_23_Z147_COOLC-HEATCNODE,Air,6
 Node,847,LOBBY_23_Z147_HEATC-FANNODE,Air,5
 Node,848,LOBBY_23_Z147_SUPPLYEQUIPMENTOUTLETNODE,Air,3
 Node,849,BREAK_ROOM_23_Z148_SUPPLYINLET,Air,3
 Node,850,BREAK_ROOM_23_Z148_COOLC-HEATCNODE,Air,6
 Node,851,BREAK_ROOM_23_Z148_HEATC-FANNODE,Air,5
 Node,852,BREAK_ROOM_23_Z148_SUPPLYEQUIPMENTOUTLETNODE,Air,3
 Node,853,MECHANICAL_23_Z149_SUPPLYINLET,Air,3
 Node,854,MECHANICAL_23_Z149_COOLC-HEATCNODE,Air,6
 Node,855,MECHANICAL_23_Z149_HEATC-FANNODE,Air,5
 Node,856,MECHANICAL_23_Z149_SUPPLYEQUIPMENTOUTLETNODE,Air,3
 Node,857,OFFICE_OPEN_23_Z150_SUPPLYINLET,Air,3
 Node,858,OFFICE_OPEN_23_Z150_COOLC-HEATCNODE,Air,6
 Node,859,OFFICE_OPEN_23_Z150_HEATC-FANNODE,Air,5
 Node,860,OFFICE_OPEN_23_Z150_SUPPLYEQUIPMENTOUTLETNODE,Air,3
 Node,861,OFFICE_PRIVATE_23_Z151_SUPPLYINLET,Air,3
 Node,862,OFFICE_PRIVATE_23_Z151_COOLC-HEATCNODE,Air,6
 Node,863,OFFICE_PRIVATE_23_Z151_HEATC-FANNODE,Air,5
 Node,864,OFFICE_PRIVATE_23_Z151_SUPPLYEQUIPMENTOUTLETNODE,Air,3
 Node,865,STORAGE_23_Z152_SUPPLYINLET,Air,3
 Node,866,STORAGE_23_Z152_COOLC-HEATCNODE,Air,6
 Node,867,STORAGE_23_Z152_HEATC-FANNODE,Air,5
 Node,868,STORAGE_23_Z152_SUPPLYEQUIPMENTOUTLETNODE,Air,3
 Node,869,LOBBY_24_Z153_SUPPLYINLET,Air,3
 Node,870,LOBBY_24_Z153_COOLC-HEATCNODE,Air,6
 Node,871,LOBBY_24_Z153_HEATC-FANNODE,Air,5
 Node,872,LOBBY_24_Z153_SUPPLYEQUIPMENTOUTLETNODE,Air,3
 Node,873,CONFERENCE_24_Z154_SUPPLYINLET,Air,3
 Node,874,CONFERENCE_24_Z154_COOLC-HEATCNODE,Air,6
 Node,875,CONFERENCE_24_Z154_HEATC-FANNODE,Air,5
 Node,876,CONFERENCE_24_Z154_SUPPLYEQUIPMENTOUTLETNODE,Air,3
 Node,877,BREAK_ROOM_24_Z155_SUPPLYINLET,Air,3
 Node,878,BREAK_ROOM_24_Z155_COOLC-HEATCNODE,Air,6
 Node,879,BREAK_ROOM_24_Z155_HEATC-FANNODE,Air,5
 Node,880,BREAK_ROOM_24_Z155_SUPPLYEQUIPMENTOUTLETNODE,Air,3
 Node,881,MECHANICAL_24_Z156_SUPPLYINLET,Air,3
 Node,882,MECHANICAL_24_Z156_COOLC-HEATCNODE,Air,6
 Node,883,MECHANICAL_24_Z156_HEATC-FANNODE,Air,5
 Node,884,MECHANICAL_24_Z156_SUPPLYEQUIPMENTOUTLETNODE,Air,3
 Node,885,OFFICE_OPEN_24_Z157_SUPPLYINLET,Air,3
 Node,886,OFFICE_OPEN_24_Z157_COOLC-HEATCNODE,Air,6
 Node,887,OFFICE_OPEN_24_Z157_HEATC-FANNODE,Air,5
 Node,888,OFFICE_OPEN_24_Z157_SUPPLYEQUIPMENTOUTLETNODE,Air,3
 Node,889,OFFICE_PRIVATE_24_Z158_SUPPLYINLET,Air,3
 Node,890,OFFICE_PRIVATE_24_Z158_COOLC-HEATCNODE,Air,6
 Node,891,OFFICE_PRIVATE_24_Z158_HEATC-FANNODE,Air,5
 Node,892,OFFICE_PRIVATE_24_Z158_SUPPLYEQUIPMENTOUTLETNODE,Air,3
 Node,893,STORAGE_24_Z159_SUPPLYINLET,Air,3
 Node,894,STORAGE_24_Z159_COOLC-HEATCNODE,Air,6
 Node,895,STORAGE_24_Z159_HEATC-FANNODE,Air,5
 Node,896,STORAGE_24_Z159_SUPPLYEQUIPMENTOUTLETNODE,Air,3
 Node,897,LOBBY_25_Z160_SUPPLYINLET,Air,3
 Node,898,LOBBY_25_Z160_COOLC-HEATCNODE,Air,6
 Node,899,LOBBY_25_Z160_HEATC-FANNODE,Air,5
 Node,900,LOBBY_25_Z160_SUPPLYEQUIPMENTOUTLETNODE,Air,3
 Node,901,CONFERENCE_25_Z161_SUPPLYINLET,Air,3
 Node,902,CONFERENCE_25_Z161_COOLC-HEATCNODE,Air,6
 Node,903,CONFERENCE_25_Z161_HEATC-FANNODE,Air,5
 Node,904,CONFERENCE_25_Z161_SUPPLYEQUIPMENTOUTLETNODE,Air,3
 Node,905,BREAK_ROOM_25_Z162_SUPPLYINLET,Air,3
 Node,906,BREAK_ROOM_25_Z162_COOLC-HEATCNODE,Air,6
 Node,907,BREAK_ROOM_25_Z162_HEATC-FANNODE,Air,5
 Node,908,BREAK_ROOM_25_Z162_SUPPLYEQUIPMENTOUTLETNODE,Air,3
 Node,909,MECHANICAL_25_Z163_SUPPLYINLET,Air,3
 Node,910,MECHANICAL_25_Z163_COOLC-HEATCNODE,Air,6
 Node,911,MECHANICAL_25_Z163_HEATC-FANNODE,Air,5
 Node,912,MECHANICAL_25_Z163_SUPPLYEQUIPMENTOUTLETNODE,Air,3
 Node,913,OFFICE_OPEN_25_Z164_SUPPLYINLET,Air,3
 Node,914,OFFICE_OPEN_25_Z164_COOLC-HEATCNODE,Air,6
 Node,915,OFFICE_OPEN_25_Z164_HEATC-FANNODE,Air,5
 Node,916,OFFICE_OPEN_25_Z164_SUPPLYEQUIPMENTOUTLETNODE,Air,3
 Node,917,OFFICE_PRIVATE_25_Z165_SUPPLYINLET,Air,3
 Node,918,OFFICE_PRIVATE_25_Z165_COOLC-HEATCNODE,Air,6
 Node,919,OFFICE_PRIVATE_25_Z165_HEATC-FANNODE,Air,5
 Node,920,OFFICE_PRIVATE_25_Z165_SUPPLYEQUIPMENTOUTLETNODE,Air,3
 Node,921,STORAGE_25_Z166_SUPPLYINLET,Air,3
 Node,922,STORAGE_25_Z166_COOLC-HEATCNODE,Air,6
 Node,923,STORAGE_25_Z166_HEATC-FANNODE,Air,5
 Node,924,STORAGE_25_Z166_SUPPLYEQUIPMENTOUTLETNODE,Air,3
 Node,925,LOBBY_26_Z167_SUPPLYINLET,Air,3
 Node,926,LOBBY_26_Z167_COOLC-HEATCNODE,Air,6
 Node,927,LOBBY_26_Z167_HEATC-FANNODE,Air,5
 Node,928,LOBBY_26_Z167_SUPPLYEQUIPMENTOUTLETNODE,Air,3
 Node,929,CONFERENCE_26_Z168_SUPPLYINLET,Air,3
 Node,930,CONFERENCE_26_Z168_COOLC-HEATCNODE,Air,6
 Node,931,CONFERENCE_26_Z168_HEATC-FANNODE,Air,5
 Node,932,CONFERENCE_26_Z168_SUPPLYEQUIPMENTOUTLETNODE,Air,3
 Node,933,BREAK_ROOM_26_Z169_SUPPLYINLET,Air,3
 Node,934,BREAK_ROOM_26_Z169_COOLC-HEATCNODE,Air,6
 Node,935,BREAK_ROOM_26_Z169_HEATC-FANNODE,Air,5
 Node,936,BREAK_ROOM_26_Z169_SUPPLYEQUIPMENTOUTLETNODE,Air,3
 Node,937,OFFICE_OPEN_26_Z170_SUPPLYINLET,Air,3
 Node,938,OFFICE_OPEN_26_Z170_COOLC-HEATCNODE,Air,6
 Node,939,OFFICE_OPEN_26_Z170_HEATC-FANNODE,Air,5
 Node,940,OFFICE_OPEN_26_Z170_SUPPLYEQUIPMENTOUTLETNODE,Air,3
 Node,941,OFFICE_PRIVATE_26_Z171_SUPPLYINLET,Air,3
 Node,942,OFFICE_PRIVATE_26_Z171_COOLC-HEATCNODE,Air,6
 Node,943,OFFICE_PRIVATE_26_Z171_HEATC-FANNODE,Air,5
 Node,944,OFFICE_PRIVATE_26_Z171_SUPPLYEQUIPMENTOUTLETNODE,Air,3
 Node,945,STORAGE_26_Z172_SUPPLYINLET,Air,3
 Node,946,STORAGE_26_Z172_COOLC-HEATCNODE,Air,6
 Node,947,STORAGE_26_Z172_HEATC-FANNODE,Air,5
 Node,948,STORAGE_26_Z172_SUPPLYEQUIPMENTOUTLETNODE,Air,3
 Node,949,LOBBY_27_Z173_SUPPLYINLET,Air,3
 Node,950,LOBBY_27_Z173_COOLC-HEATCNODE,Air,6
 Node,951,LOBBY_27_Z173_HEATC-FANNODE,Air,5
 Node,952,LOBBY_27_Z173_SUPPLYEQUIPMENTOUTLETNODE,Air,3
 Node,953,CONFERENCE_27_Z174_SUPPLYINLET,Air,3
 Node,954,CONFERENCE_27_Z174_COOLC-HEATCNODE,Air,6
 Node,955,CONFERENCE_27_Z174_HEATC-FANNODE,Air,5
 Node,956,CONFERENCE_27_Z174_SUPPLYEQUIPMENTOUTLETNODE,Air,3
 Node,957,BREAK_ROOM_27_Z175_SUPPLYINLET,Air,3
 Node,958,BREAK_ROOM_27_Z175_COOLC-HEATCNODE,Air,6
 Node,959,BREAK_ROOM_27_Z175_HEATC-FANNODE,Air,5
 Node,960,BREAK_ROOM_27_Z175_SUPPLYEQUIPMENTOUTLETNODE,Air,3
 Node,961,MECHANICAL_27_Z176_SUPPLYINLET,Air,3
 Node,962,MECHANICAL_27_Z176_COOLC-HEATCNODE,Air,6
 Node,963,MECHANICAL_27_Z176_HEATC-FANNODE,Air,5
 Node,964,MECHANICAL_27_Z176_SUPPLYEQUIPMENTOUTLETNODE,Air,3
 Node,965,OFFICE_OPEN_27_Z177_SUPPLYINLET,Air,3
 Node,966,OFFICE_OPEN_27_Z177_COOLC-HEATCNODE,Air,6
 Node,967,OFFICE_OPEN_27_Z177_HEATC-FANNODE,Air,5
 Node,968,OFFICE_OPEN_27_Z177_SUPPLYEQUIPMENTOUTLETNODE,Air,3
 Node,969,OFFICE_PRIVATE_27_Z178_SUPPLYINLET,Air,3
 Node,970,OFFICE_PRIVATE_27_Z178_COOLC-HEATCNODE,Air,6
 Node,971,OFFICE_PRIVATE_27_Z178_HEATC-FANNODE,Air,5
 Node,972,OFFICE_PRIVATE_27_Z178_SUPPLYEQUIPMENTOUTLETNODE,Air,3
 Node,973,STORAGE_27_Z179_SUPPLYINLET,Air,3
 Node,974,STORAGE_27_Z179_COOLC-HEATCNODE,Air,6
 Node,975,STORAGE_27_Z179_HEATC-FANNODE,Air,5
 Node,976,STORAGE_27_Z179_SUPPLYEQUIPMENTOUTLETNODE,Air,3
 Node,977,LOBBY_28_Z180_SUPPLYINLET,Air,3
 Node,978,LOBBY_28_Z180_COOLC-HEATCNODE,Air,6
 Node,979,LOBBY_28_Z180_HEATC-FANNODE,Air,5
 Node,980,LOBBY_28_Z180_SUPPLYEQUIPMENTOUTLETNODE,Air,3
 Node,981,CONFERENCE_28_Z181_SUPPLYINLET,Air,3
 Node,982,CONFERENCE_28_Z181_COOLC-HEATCNODE,Air,6
 Node,983,CONFERENCE_28_Z181_HEATC-FANNODE,Air,5
 Node,984,CONFERENCE_28_Z181_SUPPLYEQUIPMENTOUTLETNODE,Air,3
 Node,985,BREAK_ROOM_28_Z182_SUPPLYINLET,Air,3
 Node,986,BREAK_ROOM_28_Z182_COOLC-HEATCNODE,Air,6
 Node,987,BREAK_ROOM_28_Z182_HEATC-FANNODE,Air,5
 Node,988,BREAK_ROOM_28_Z182_SUPPLYEQUIPMENTOUTLETNODE,Air,3
 Node,989,MECHANICAL_28_Z183_SUPPLYINLET,Air,3
 Node,990,MECHANICAL_28_Z183_COOLC-HEATCNODE,Air,6
 Node,991,MECHANICAL_28_Z183_HEATC-FANNODE,Air,5
 Node,992,MECHANICAL_28_Z183_SUPPLYEQUIPMENTOUTLETNODE,Air,3
 Node,993,OFFICE_OPEN_28_Z184_SUPPLYINLET,Air,3
 Node,994,OFFICE_OPEN_28_Z184_COOLC-HEATCNODE,Air,6
 Node,995,OFFICE_OPEN_28_Z184_HEATC-FANNODE,Air,5
 Node,996,OFFICE_OPEN_28_Z184_SUPPLYEQUIPMENTOUTLETNODE,Air,3
 Node,997,STORAGE_28_Z185_SUPPLYINLET,Air,3
 Node,998,STORAGE_28_Z185_COOLC-HEATCNODE,Air,6
 Node,999,STORAGE_28_Z185_HEATC-FANNODE,Air,5
 Node,1000,STORAGE_28_Z185_SUPPLYEQUIPMENTOUTLETNODE,Air,3
 Node,1001,CONFERENCE_29_Z186_SUPPLYINLET,Air,3
 Node,1002,CONFERENCE_29_Z186_COOLC-HEATCNODE,Air,6
 Node,1003,CONFERENCE_29_Z186_HEATC-FANNODE,Air,5
 Node,1004,CONFERENCE_29_Z186_SUPPLYEQUIPMENTOUTLETNODE,Air,3
 Node,1005,BREAK_ROOM_29_Z187_SUPPLYINLET,Air,3
 Node,1006,BREAK_ROOM_29_Z187_COOLC-HEATCNODE,Air,6
 Node,1007,BREAK_ROOM_29_Z187_HEATC-FANNODE,Air,5
 Node,1008,BREAK_ROOM_29_Z187_SUPPLYEQUIPMENTOUTLETNODE,Air,3
 Node,1009,OFFICE_OPEN_29_Z188_SUPPLYINLET,Air,3
 Node,1010,OFFICE_OPEN_29_Z188_COOLC-HEATCNODE,Air,6
 Node,1011,OFFICE_OPEN_29_Z188_HEATC-FANNODE,Air,5
 Node,1012,OFFICE_OPEN_29_Z188_SUPPLYEQUIPMENTOUTLETNODE,Air,3
 Node,1013,OFFICE_PRIVATE_29_Z189_SUPPLYINLET,Air,3
 Node,1014,OFFICE_PRIVATE_29_Z189_COOLC-HEATCNODE,Air,6
 Node,1015,OFFICE_PRIVATE_29_Z189_HEATC-FANNODE,Air,5
 Node,1016,OFFICE_PRIVATE_29_Z189_SUPPLYEQUIPMENTOUTLETNODE,Air,3
 Node,1017,STORAGE_29_Z190_SUPPLYINLET,Air,3
 Node,1018,STORAGE_29_Z190_COOLC-HEATCNODE,Air,6
 Node,1019,STORAGE_29_Z190_HEATC-FANNODE,Air,5
 Node,1020,STORAGE_29_Z190_SUPPLYEQUIPMENTOUTLETNODE,Air,3
 Node,1021,LOBBY_30_Z191_SUPPLYINLET,Air,3
 Node,1022,LOBBY_30_Z191_COOLC-HEATCNODE,Air,6
 Node,1023,LOBBY_30_Z191_HEATC-FANNODE,Air,5
 Node,1024,LOBBY_30_Z191_SUPPLYEQUIPMENTOUTLETNODE,Air,3
 Node,1025,CONFERENCE_30_Z192_SUPPLYINLET,Air,3
 Node,1026,CONFERENCE_30_Z192_COOLC-HEATCNODE,Air,6
 Node,1027,CONFERENCE_30_Z192_HEATC-FANNODE,Air,5
 Node,1028,CONFERENCE_30_Z192_SUPPLYEQUIPMENTOUTLETNODE,Air,3
 Node,1029,BREAK_ROOM_30_Z193_SUPPLYINLET,Air,3
 Node,1030,BREAK_ROOM_30_Z193_COOLC-HEATCNODE,Air,6
 Node,1031,BREAK_ROOM_30_Z193_HEATC-FANNODE,Air,5
 Node,1032,BREAK_ROOM_30_Z193_SUPPLYEQUIPMENTOUTLETNODE,Air,3
 Node,1033,MECHANICAL_30_Z194_SUPPLYINLET,Air,3
 Node,1034,MECHANICAL_30_Z194_COOLC-HEATCNODE,Air,6
 Node,1035,MECHANICAL_30_Z194_HEATC-FANNODE,Air,5
 Node,1036,MECHANICAL_30_Z194_SUPPLYEQUIPMENTOUTLETNODE,Air,3
 Node,1037,OFFICE_OPEN_30_Z195_SUPPLYINLET,Air,3
 Node,1038,OFFICE_OPEN_30_Z195_COOLC-HEATCNODE,Air,6
 Node,1039,OFFICE_OPEN_30_Z195_HEATC-FANNODE,Air,5
 Node,1040,OFFICE_OPEN_30_Z195_SUPPLYEQUIPMENTOUTLETNODE,Air,3
 Node,1041,OFFICE_PRIVATE_30_Z196_SUPPLYINLET,Air,3
 Node,1042,OFFICE_PRIVATE_30_Z196_COOLC-HEATCNODE,Air,6
 Node,1043,OFFICE_PRIVATE_30_Z196_HEATC-FANNODE,Air,5
 Node,1044,OFFICE_PRIVATE_30_Z196_SUPPLYEQUIPMENTOUTLETNODE,Air,3
 Node,1045,STORAGE_30_Z197_SUPPLYINLET,Air,3
 Node,1046,STORAGE_30_Z197_COOLC-HEATCNODE,Air,6
 Node,1047,STORAGE_30_Z197_HEATC-FANNODE,Air,5
 Node,1048,STORAGE_30_Z197_SUPPLYEQUIPMENTOUTLETNODE,Air,3
 Node,1049,LOBBY_31_Z198_SUPPLYINLET,Air,3
 Node,1050,LOBBY_31_Z198_COOLC-HEATCNODE,Air,6
 Node,1051,LOBBY_31_Z198_HEATC-FANNODE,Air,5
 Node,1052,LOBBY_31_Z198_SUPPLYEQUIPMENTOUTLETNODE,Air,3
 Node,1053,CONFERENCE_31_Z199_SUPPLYINLET,Air,3
 Node,1054,CONFERENCE_31_Z199_COOLC-HEATCNODE,Air,6
 Node,1055,CONFERENCE_31_Z199_HEATC-FANNODE,Air,5
 Node,1056,CONFERENCE_31_Z199_SUPPLYEQUIPMENTOUTLETNODE,Air,3
 Node,1057,BREAK_ROOM_31_Z200_SUPPLYINLET,Air,3
 Node,1058,BREAK_ROOM_31_Z200_COOLC-HEATCNODE,Air,6
 Node,1059,BREAK_ROOM_31_Z200_HEATC-FANNODE,Air,5
 Node,1060,BREAK_ROOM_31_Z200_SUPPLYEQUIPMENTOUTLETNODE,Air,3
 Node,1061,MECHANICAL_31_Z201_SUPPLYINLET,Air,3
 Node,1062,MECHANICAL_31_Z201_COOLC-HEATCNODE,Air,6
 Node,1063,MECHANICAL_31_Z201_HEATC-FANNODE,Air,5
 Node,1064,MECHANICAL_31_Z201_SUPPLYEQUIPMENTOUTLETNODE,Air,3
 Node,1065,OFFICE_OPEN_31_Z202_SUPPLYINLET,Air,3
 Node,1066,OFFICE_OPEN_31_Z202_COOLC-HEATCNODE,Air,6
 Node,1067,OFFICE_OPEN_31_Z202_HEATC-FANNODE,Air,5
 Node,1068,OFFICE_OPEN_31_Z202_SUPPLYEQUIPMENTOUTLETNODE,Air,3
 Node,1069,OFFICE_PRIVATE_31_Z203_SUPPLYINLET,Air,3
 Node,1070,OFFICE_PRIVATE_31_Z203_COOLC-HEATCNODE,Air,6
 Node,1071,OFFICE_PRIVATE_31_Z203_HEATC-FANNODE,Air,5
 Node,1072,OFFICE_PRIVATE_31_Z203_SUPPLYEQUIPMENTOUTLETNODE,Air,3
 Node,1073,STORAGE_31_Z204_SUPPLYINLET,Air,3
 Node,1074,STORAGE_31_Z204_COOLC-HEATCNODE,Air,6
 Node,1075,STORAGE_31_Z204_HEATC-FANNODE,Air,5
 Node,1076,STORAGE_31_Z204_SUPPLYEQUIPMENTOUTLETNODE,Air,3
 Node,1077,CONFERENCE_32_Z205_SUPPLYINLET,Air,3
 Node,1078,CONFERENCE_32_Z205_COOLC-HEATCNODE,Air,6
 Node,1079,CONFERENCE_32_Z205_HEATC-FANNODE,Air,5
 Node,1080,CONFERENCE_32_Z205_SUPPLYEQUIPMENTOUTLETNODE,Air,3
 Node,1081,BREAK_ROOM_32_Z206_SUPPLYINLET,Air,3
 Node,1082,BREAK_ROOM_32_Z206_COOLC-HEATCNODE,Air,6
 Node,1083,BREAK_ROOM_32_Z206_HEATC-FANNODE,Air,5
 Node,1084,BREAK_ROOM_32_Z206_SUPPLYEQUIPMENTOUTLETNODE,Air,3
 Node,1085,MECHANICAL_32_Z207_SUPPLYINLET,Air,3
 Node,1086,MECHANICAL_32_Z207_COOLC-HEATCNODE,Air,6
 Node,1087,MECHANICAL_32_Z207_HEATC-FANNODE,Air,5
 Node,1088,MECHANICAL_32_Z207_SUPPLYEQUIPMENTOUTLETNODE,Air,3
 Node,1089,OFFICE_OPEN_32_Z208_SUPPLYINLET,Air,3
 Node,1090,OFFICE_OPEN_32_Z208_COOLC-HEATCNODE,Air,6
 Node,1091,OFFICE_OPEN_32_Z208_HEATC-FANNODE,Air,5
 Node,1092,OFFICE_OPEN_32_Z208_SUPPLYEQUIPMENTOUTLETNODE,Air,3
 Node,1093,OFFICE_PRIVATE_32_Z209_SUPPLYINLET,Air,3
 Node,1094,OFFICE_PRIVATE_32_Z209_COOLC-HEATCNODE,Air,6
 Node,1095,OFFICE_PRIVATE_32_Z209_HEATC-FANNODE,Air,5
 Node,1096,OFFICE_PRIVATE_32_Z209_SUPPLYEQUIPMENTOUTLETNODE,Air,3
 Node,1097,STORAGE_32_Z210_SUPPLYINLET,Air,3
 Node,1098,STORAGE_32_Z210_COOLC-HEATCNODE,Air,6
 Node,1099,STORAGE_32_Z210_HEATC-FANNODE,Air,5
 Node,1100,STORAGE_32_Z210_SUPPLYEQUIPMENTOUTLETNODE,Air,3
 Node,1101,LOBBY_33_Z211_SUPPLYINLET,Air,3
 Node,1102,LOBBY_33_Z211_COOLC-HEATCNODE,Air,6
 Node,1103,LOBBY_33_Z211_HEATC-FANNODE,Air,5
 Node,1104,LOBBY_33_Z211_SUPPLYEQUIPMENTOUTLETNODE,Air,3
 Node,1105,CONFERENCE_33_Z212_SUPPLYINLET,Air,3
 Node,1106,CONFERENCE_33_Z212_COOLC-HEATCNODE,Air,6
 Node,1107,CONFERENCE_33_Z212_HEATC-FANNODE,Air,5
 Node,1108,CONFERENCE_33_Z212_SUPPLYEQUIPMENTOUTLETNODE,Air,3
 Node,1109,BREAK_ROOM_33_Z213_SUPPLYINLET,Air,3
 Node,1110,BREAK_ROOM_33_Z213_COOLC-HEATCNODE,Air,6
 Node,1111,BREAK_ROOM_33_Z213_HEATC-FANNODE,Air,5
 Node,1112,BREAK_ROOM_33_Z213_SUPPLYEQUIPMENTOUTLETNODE,Air,3
 Node,1113,MECHANICAL_33_Z214_SUPPLYINLET,Air,3
 Node,1114,MECHANICAL_33_Z214_COOLC-HEATCNODE,Air,6
 Node,1115,MECHANICAL_33_Z214_HEATC-FANNODE,Air,5
 Node,1116,MECHANICAL_33_Z214_SUPPLYEQUIPMENTOUTLETNODE,Air,3
 Node,1117,OFFICE_OPEN_33_Z215_SUPPLYINLET,Air,3
 Node,1118,OFFICE_OPEN_33_Z215_COOLC-HEATCNODE,Air,6
 Node,1119,OFFICE_OPEN_33_Z215_HEATC-FANNODE,Air,5
 Node,1120,OFFICE_OPEN_33_Z215_SUPPLYEQUIPMENTOUTLETNODE,Air,3
 Node,1121,OFFICE_PRIVATE_33_Z216_SUPPLYINLET,Air,3
 Node,1122,OFFICE_PRIVATE_33_Z216_COOLC-HEATCNODE,Air,6
 Node,1123,OFFICE_PRIVATE_33_Z216_HEATC-FANNODE,Air,5
 Node,1124,OFFICE_PRIVATE_33_Z216_SUPPLYEQUIPMENTOUTLETNODE,Air,3
 Node,1125,STORAGE_33_Z217_SUPPLYINLET,Air,3
 Node,1126,STORAGE_33_Z217_COOLC-HEATCNODE,Air,6
 Node,1127,STORAGE_33_Z217_HEATC-FANNODE,Air,5
 Node,1128,STORAGE_33_Z217_SUPPLYEQUIPMENTOUTLETNODE,Air,3
 Node,1129,LOBBY_34_Z218_SUPPLYINLET,Air,3
 Node,1130,LOBBY_34_Z218_COOLC-HEATCNODE,Air,6
 Node,1131,LOBBY_34_Z218_HEATC-FANNODE,Air,5
 Node,1132,LOBBY_34_Z218_SUPPLYEQUIPMENTOUTLETNODE,Air,3
 Node,1133,BREAK_ROOM_34_Z219_SUPPLYINLET,Air,3
 Node,1134,BREAK_ROOM_34_Z219_COOLC-HEATCNODE,Air,6
 Node,1135,BREAK_ROOM_34_Z219_HEATC-FANNODE,Air,5
 Node,1136,BREAK_ROOM_34_Z219_SUPPLYEQUIPMENTOUTLETNODE,Air,3
 Node,1137,MECHANICAL_34_Z220_SUPPLYINLET,Air,3
 Node,1138,MECHANICAL_34_Z220_COOLC-HEATCNODE,Air,6
 Node,1139,MECHANICAL_34_Z220_HEATC-FANNODE,Air,5
 Node,1140,MECHANICAL_34_Z220_SUPPLYEQUIPMENTOUTLETNODE,Air,3
 Node,1141,OFFICE_OPEN_34_Z221_SUPPLYINLET,Air,3
 Node,1142,OFFICE_OPEN_34_Z221_COOLC-HEATCNODE,Air,6
 Node,1143,OFFICE_OPEN_34_Z221_HEATC-FANNODE,Air,5
 Node,1144,OFFICE_OPEN_34_Z221_SUPPLYEQUIPMENTOUTLETNODE,Air,3
 Node,1145,OFFICE_PRIVATE_34_Z222_SUPPLYINLET,Air,3
 Node,1146,OFFICE_PRIVATE_34_Z222_COOLC-HEATCNODE,Air,6
 Node,1147,OFFICE_PRIVATE_34_Z222_HEATC-FANNODE,Air,5
 Node,1148,OFFICE_PRIVATE_34_Z222_SUPPLYEQUIPMENTOUTLETNODE,Air,3
 Node,1149,STORAGE_34_Z223_SUPPLYINLET,Air,3
 Node,1150,STORAGE_34_Z223_COOLC-HEATCNODE,Air,6
 Node,1151,STORAGE_34_Z223_HEATC-FANNODE,Air,5
 Node,1152,STORAGE_34_Z223_SUPPLYEQUIPMENTOUTLETNODE,Air,3
 Node,1153,LOBBY_35_Z224_SUPPLYINLET,Air,3
 Node,1154,LOBBY_35_Z224_COOLC-HEATCNODE,Air,6
 Node,1155,LOBBY_35_Z224_HEATC-FANNODE,Air,5
 Node,1156,LOBBY_35_Z224_SUPPLYEQUIPMENTOUTLETNODE,Air,3
 Node,1157,BREAK_ROOM_35_Z225_SUPPLYINLET,Air,3
 Node,1158,BREAK_ROOM_35_Z225_COOLC-HEATCNODE,Air,6
 Node,1159,BREAK_ROOM_35_Z225_HEATC-FANNODE,Air,5
 Node,1160,BREAK_ROOM_35_Z225_SUPPLYEQUIPMENTOUTLETNODE,Air,3
 Node,1161,MECHANICAL_35_Z226_SUPPLYINLET,Air,3
 Node,1162,MECHANICAL_35_Z226_COOLC-HEATCNODE,Air,6
 Node,1163,MECHANICAL_35_Z226_HEATC-FANNODE,Air,5
 Node,1164,MECHANICAL_35_Z226_SUPPLYEQUIPMENTOUTLETNODE,Air,3
 Node,1165,OFFICE_OPEN_35_Z227_SUPPLYINLET,Air,3
 Node,1166,OFFICE_OPEN_35_Z227_COOLC-HEATCNODE,Air,6
 Node,1167,OFFICE_OPEN_35_Z227_HEATC-FANNODE,Air,5
 Node,1168,OFFICE_OPEN_35_Z227_SUPPLYEQUIPMENTOUTLETNODE,Air,3
 Node,1169,OFFICE_PRIVATE_35_Z228_SUPPLYINLET,Air,3
 Node,1170,OFFICE_PRIVATE_35_Z228_COOLC-HEATCNODE,Air,6
 Node,1171,OFFICE_PRIVATE_35_Z228_HEATC-FANNODE,Air,5
 Node,1172,OFFICE_PRIVATE_35_Z228_SUPPLYEQUIPMENTOUTLETNODE,Air,3
 Node,1173,STORAGE_35_Z229_SUPPLYINLET,Air,3
 Node,1174,STORAGE_35_Z229_COOLC-HEATCNODE,Air,6
 Node,1175,STORAGE_35_Z229_HEATC-FANNODE,Air,5
 Node,1176,STORAGE_35_Z229_SUPPLYEQUIPMENTOUTLETNODE,Air,3
 Node,1177,LOBBY_36_Z230_SUPPLYINLET,Air,3
 Node,1178,LOBBY_36_Z230_COOLC-HEATCNODE,Air,6
 Node,1179,LOBBY_36_Z230_HEATC-FANNODE,Air,5
 Node,1180,LOBBY_36_Z230_SUPPLYEQUIPMENTOUTLETNODE,Air,3
 Node,1181,CONFERENCE_36_Z231_SUPPLYINLET,Air,3
 Node,1182,CONFERENCE_36_Z231_COOLC-HEATCNODE,Air,6
 Node,1183,CONFERENCE_36_Z231_HEATC-FANNODE,Air,5
 Node,1184,CONFERENCE_36_Z231_SUPPLYEQUIPMENTOUTLETNODE,Air,3
 Node,1185,BREAK_ROOM_36_Z232_SUPPLYINLET,Air,3
 Node,1186,BREAK_ROOM_36_Z232_COOLC-HEATCNODE,Air,6
 Node,1187,BREAK_ROOM_36_Z232_HEATC-FANNODE,Air,5
 Node,1188,BREAK_ROOM_36_Z232_SUPPLYEQUIPMENTOUTLETNODE,Air,3
 Node,1189,MECHANICAL_36_Z233_SUPPLYINLET,Air,3
 Node,1190,MECHANICAL_36_Z233_COOLC-HEATCNODE,Air,6
 Node,1191,MECHANICAL_36_Z233_HEATC-FANNODE,Air,5
 Node,1192,MECHANICAL_36_Z233_SUPPLYEQUIPMENTOUTLETNODE,Air,3
 Node,1193,OFFICE_OPEN_36_Z234_SUPPLYINLET,Air,3
 Node,1194,OFFICE_OPEN_36_Z234_COOLC-HEATCNODE,Air,6
 Node,1195,OFFICE_OPEN_36_Z234_HEATC-FANNODE,Air,5
 Node,1196,OFFICE_OPEN_36_Z234_SUPPLYEQUIPMENTOUTLETNODE,Air,3
 Node,1197,OFFICE_PRIVATE_36_Z235_SUPPLYINLET,Air,3
 Node,1198,OFFICE_PRIVATE_36_Z235_COOLC-HEATCNODE,Air,6
 Node,1199,OFFICE_PRIVATE_36_Z235_HEATC-FANNODE,Air,5
 Node,1200,OFFICE_PRIVATE_36_Z235_SUPPLYEQUIPMENTOUTLETNODE,Air,3
 Node,1201,STORAGE_36_Z236_SUPPLYINLET,Air,3
 Node,1202,STORAGE_36_Z236_COOLC-HEATCNODE,Air,6
 Node,1203,STORAGE_36_Z236_HEATC-FANNODE,Air,5
 Node,1204,STORAGE_36_Z236_SUPPLYEQUIPMENTOUTLETNODE,Air,3
 Node,1205,LOBBY_37_Z237_SUPPLYINLET,Air,3
 Node,1206,LOBBY_37_Z237_COOLC-HEATCNODE,Air,6
 Node,1207,LOBBY_37_Z237_HEATC-FANNODE,Air,5
 Node,1208,LOBBY_37_Z237_SUPPLYEQUIPMENTOUTLETNODE,Air,3
 Node,1209,CONFERENCE_37_Z238_SUPPLYINLET,Air,3
 Node,1210,CONFERENCE_37_Z238_COOLC-HEATCNODE,Air,6
 Node,1211,CONFERENCE_37_Z238_HEATC-FANNODE,Air,5
 Node,1212,CONFERENCE_37_Z238_SUPPLYEQUIPMENTOUTLETNODE,Air,3
 Node,1213,BREAK_ROOM_37_Z239_SUPPLYINLET,Air,3
 Node,1214,BREAK_ROOM_37_Z239_COOLC-HEATCNODE,Air,6
 Node,1215,BREAK_ROOM_37_Z239_HEATC-FANNODE,Air,5
 Node,1216,BREAK_ROOM_37_Z239_SUPPLYEQUIPMENTOUTLETNODE,Air,3
 Node,1217,MECHANICAL_37_Z240_SUPPLYINLET,Air,3
 Node,1218,MECHANICAL_37_Z240_COOLC-HEATCNODE,Air,6
 Node,1219,MECHANICAL_37_Z240_HEATC-FANNODE,Air,5
 Node,1220,MECHANICAL_37_Z240_SUPPLYEQUIPMENTOUTLETNODE,Air,3
 Node,1221,OFFICE_PRIVATE_37_Z241_SUPPLYINLET,Air,3
 Node,1222,OFFICE_PRIVATE_37_Z241_COOLC-HEATCNODE,Air,6
 Node,1223,OFFICE_PRIVATE_37_Z241_HEATC-FANNODE,Air,5
 Node,1224,OFFICE_PRIVATE_37_Z241_SUPPLYEQUIPMENTOUTLETNODE,Air,3
 Node,1225,STORAGE_37_Z242_SUPPLYINLET,Air,3
 Node,1226,STORAGE_37_Z242_COOLC-HEATCNODE,Air,6
 Node,1227,STORAGE_37_Z242_HEATC-FANNODE,Air,5
 Node,1228,STORAGE_37_Z242_SUPPLYEQUIPMENTOUTLETNODE,Air,3
 Node,1229,LOBBY_38_Z243_SUPPLYINLET,Air,3
 Node,1230,LOBBY_38_Z243_COOLC-HEATCNODE,Air,6
 Node,1231,LOBBY_38_Z243_HEATC-FANNODE,Air,5
 Node,1232,LOBBY_38_Z243_SUPPLYEQUIPMENTOUTLETNODE,Air,3
 Node,1233,CONFERENCE_38_Z244_SUPPLYINLET,Air,3
 Node,1234,CONFERENCE_38_Z244_COOLC-HEATCNODE,Air,6
 Node,1235,CONFERENCE_38_Z244_HEATC-FANNODE,Air,5
 Node,1236,CONFERENCE_38_Z244_SUPPLYEQUIPMENTOUTLETNODE,Air,3
 Node,1237,BREAK_ROOM_38_Z245_SUPPLYINLET,Air,3
 Node,1238,BREAK_ROOM_38_Z245_COOLC-HEATCNODE,Air,6
 Node,1239,BREAK_ROOM_38_Z245_HEATC-FANNODE,Air,5
 Node,1240,BREAK_ROOM_38_Z245_SUPPLYEQUIPMENTOUTLETNODE,Air,3
 Node,1241,MECHANICAL_38_Z246_SUPPLYINLET,Air,3
 Node,1242,MECHANICAL_38_Z246_COOLC-HEATCNODE,Air,6
 Node,1243,MECHANICAL_38_Z246_HEATC-FANNODE,Air,5
 Node,1244,MECHANICAL_38_Z246_SUPPLYEQUIPMENTOUTLETNODE,Air,3
 Node,1245,OFFICE_PRIVATE_38_Z247_SUPPLYINLET,Air,3
 Node,1246,OFFICE_PRIVATE_38_Z247_COOLC-HEATCNODE,Air,6
 Node,1247,OFFICE_PRIVATE_38_Z247_HEATC-FANNODE,Air,5
 Node,1248,OFFICE_PRIVATE_38_Z247_SUPPLYEQUIPMENTOUTLETNODE,Air,3
 Node,1249,LOBBY_39_Z248_SUPPLYINLET,Air,3
 Node,1250,LOBBY_39_Z248_COOLC-HEATCNODE,Air,6
 Node,1251,LOBBY_39_Z248_HEATC-FANNODE,Air,5
 Node,1252,LOBBY_39_Z248_SUPPLYEQUIPMENTOUTLETNODE,Air,3
 Node,1253,CONFERENCE_39_Z249_SUPPLYINLET,Air,3
 Node,1254,CONFERENCE_39_Z249_COOLC-HEATCNODE,Air,6
 Node,1255,CONFERENCE_39_Z249_HEATC-FANNODE,Air,5
 Node,1256,CONFERENCE_39_Z249_SUPPLYEQUIPMENTOUTLETNODE,Air,3
 Node,1257,BREAK_ROOM_39_Z250_SUPPLYINLET,Air,3
 Node,1258,BREAK_ROOM_39_Z250_COOLC-HEATCNODE,Air,6
 Node,1259,BREAK_ROOM_39_Z250_HEATC-FANNODE,Air,5
 Node,1260,BREAK_ROOM_39_Z250_SUPPLYEQUIPMENTOUTLETNODE,Air,3
 Node,1261,MECHANICAL_39_Z251_SUPPLYINLET,Air,3
 Node,1262,MECHANICAL_39_Z251_COOLC-HEATCNODE,Air,6
 Node,1263,MECHANICAL_39_Z251_HEATC-FANNODE,Air,5
 Node,1264,MECHANICAL_39_Z251_SUPPLYEQUIPMENTOUTLETNODE,Air,3
 Node,1265,OFFICE_OPEN_39_Z252_SUPPLYINLET,Air,3
 Node,1266,OFFICE_OPEN_39_Z252_COOLC-HEATCNODE,Air,6
 Node,1267,OFFICE_OPEN_39_Z252_HEATC-FANNODE,Air,5
 Node,1268,OFFICE_OPEN_39_Z252_SUPPLYEQUIPMENTOUTLETNODE,Air,3
 Node,1269,OFFICE_PRIVATE_39_Z253_SUPPLYINLET,Air,3
 Node,1270,OFFICE_PRIVATE_39_Z253_COOLC-HEATCNODE,Air,6
 Node,1271,OFFICE_PRIVATE_39_Z253_HEATC-FANNODE,Air,5
 Node,1272,OFFICE_PRIVATE_39_Z253_SUPPLYEQUIPMENTOUTLETNODE,Air,3
 Node,1273,STORAGE_39_Z254_SUPPLYINLET,Air,3
 Node,1274,STORAGE_39_Z254_COOLC-HEATCNODE,Air,6
 Node,1275,STORAGE_39_Z254_HEATC-FANNODE,Air,5
 Node,1276,STORAGE_39_Z254_SUPPLYEQUIPMENTOUTLETNODE,Air,3
 Node,1277,LOBBY_40_Z255_SUPPLYINLET,Air,3
 Node,1278,LOBBY_40_Z255_COOLC-HEATCNODE,Air,6
 Node,1279,LOBBY_40_Z255_HEATC-FANNODE,Air,5
 Node,1280,LOBBY_40_Z255_SUPPLYEQUIPMENTOUTLETNODE,Air,3
 Node,1281,CONFERENCE_40_Z256_SUPPLYINLET,Air,3
 Node,1282,CONFERENCE_40_Z256_COOLC-HEATCNODE,Air,6
 Node,1283,CONFERENCE_40_Z256_HEATC-FANNODE,Air,5
 Node,1284,CONFERENCE_40_Z256_SUPPLYEQUIPMENTOUTLETNODE,Air,3
 Node,1285,BREAK_ROOM_40_Z257_SUPPLYINLET,Air,3
 Node,1286,BREAK_ROOM_40_Z257_COOLC-HEATCNODE,Air,6
 Node,1287,BREAK_ROOM_40_Z257_HEATC-FANNODE,Air,5
 Node,1288,BREAK_ROOM_40_Z257_SUPPLYEQUIPMENTOUTLETNODE,Air,3
 Node,1289,MECHANICAL_40_Z258_SUPPLYINLET,Air,3
 Node,1290,MECHANICAL_40_Z258_COOLC-HEATCNODE,Air,6
 Node,1291,MECHANICAL_40_Z258_HEATC-FANNODE,Air,5
 Node,1292,MECHANICAL_40_Z258_SUPPLYEQUIPMENTOUTLETNODE,Air,3
 Node,1293,OFFICE_OPEN_40_Z259_SUPPLYINLET,Air,3
 Node,1294,OFFICE_OPEN_40_Z259_COOLC-HEATCNODE,Air,6
 Node,1295,OFFICE_OPEN_40_Z259_HEATC-FANNODE,Air,5
 Node,1296,OFFICE_OPEN_40_Z259_SUPPLYEQUIPMENTOUTLETNODE,Air,3
 Node,1297,OFFICE_PRIVATE_40_Z260_SUPPLYINLET,Air,3
 Node,1298,OFFICE_PRIVATE_40_Z260_COOLC-HEATCNODE,Air,6
 Node,1299,OFFICE_PRIVATE_40_Z260_HEATC-FANNODE,Air,5
 Node,1300,OFFICE_PRIVATE_40_Z260_SUPPLYEQUIPMENTOUTLETNODE,Air,3
 Node,1301,CONFERENCE_0 AIR NODE,Air,0
 Node,1302,CONFERENCE_0_Z1_RETURNAIR,Air,1
 Node,1303,BREAK_ROOM_0 AIR NODE,Air,0
 Node,1304,BREAK_ROOM_0_Z2_RETURNAIR,Air,1
 Node,1305,MECHANICAL_0 AIR NODE,Air,0
 Node,1306,MECHANICAL_0_Z3_RETURNAIR,Air,1
 Node,1307,OFFICE_OPEN_0 AIR NODE,Air,0
 Node,1308,OFFICE_OPEN_0_Z4_RETURNAIR,Air,1
 Node,1309,OFFICE_PRIVATE_0 AIR NODE,Air,0
 Node,1310,OFFICE_PRIVATE_0_Z5_RETURNAIR,Air,1
 Node,1311,STORAGE_0 AIR NODE,Air,0
 Node,1312,STORAGE_0_Z6_RETURNAIR,Air,1
 Node,1313,LOBBY_1 AIR NODE,Air,0
 Node,1314,LOBBY_1_Z7_RETURNAIR,Air,1
 Node,1315,CONFERENCE_1 AIR NODE,Air,0
 Node,1316,CONFERENCE_1_Z8_RETURNAIR,Air,1
 Node,1317,BREAK_ROOM_1 AIR NODE,Air,0
 Node,1318,BREAK_ROOM_1_Z9_RETURNAIR,Air,1
 Node,1319,MECHANICAL_1 AIR NODE,Air,0
 Node,1320,MECHANICAL_1_Z10_RETURNAIR,Air,1
 Node,1321,OFFICE_OPEN_1 AIR NODE,Air,0
 Node,1322,OFFICE_OPEN_1_Z11_RETURNAIR,Air,1
 Node,1323,OFFICE_PRIVATE_1 AIR NODE,Air,0
 Node,1324,OFFICE_PRIVATE_1_Z12_RETURNAIR,Air,1
 Node,1325,STORAGE_1 AIR NODE,Air,0
 Node,1326,STORAGE_1_Z13_RETURNAIR,Air,1
 Node,1327,LOBBY_2 AIR NODE,Air,0
 Node,1328,LOBBY_2_Z14_RETURNAIR,Air,1
 Node,1329,CONFERENCE_2 AIR NODE,Air,0
 Node,1330,CONFERENCE_2_Z15_RETURNAIR,Air,1
 Node,1331,BREAK_ROOM_2 AIR NODE,Air,0
 Node,1332,BREAK_ROOM_2_Z16_RETURNAIR,Air,1
 Node,1333,OFFICE_OPEN_2 AIR NODE,Air,0
 Node,1334,OFFICE_OPEN_2_Z17_RETURNAIR,Air,1
 Node,1335,OFFICE_PRIVATE_2 AIR NODE,Air,0
 Node,1336,OFFICE_PRIVATE_2_Z18_RETURNAIR,Air,1
 Node,1337,STORAGE_2 AIR NODE,Air,0
 Node,1338,STORAGE_2_Z19_RETURNAIR,Air,1
 Node,1339,LOBBY_3 AIR NODE,Air,0
 Node,1340,LOBBY_3_Z20_RETURNAIR,Air,1
 Node,1341,CONFERENCE_3 AIR NODE,Air,0
 Node,1342,CONFERENCE_3_Z21_RETURNAIR,Air,1
 Node,1343,BREAK_ROOM_3 AIR NODE,Air,0
 Node,1344,BREAK_ROOM_3_Z22_RETURNAIR,Air,1
 Node,1345,OFFICE_OPEN_3 AIR NODE,Air,0
 Node,1346,OFFICE_OPEN_3_Z23_RETURNAIR,Air,1
 Node,1347,OFFICE_PRIVATE_3 AIR NODE,Air,0
 Node,1348,OFFICE_PRIVATE_3_Z24_RETURNAIR,Air,1
 Node,1349,LOBBY_4 AIR NODE,Air,0
 Node,1350,LOBBY_4_Z25_RETURNAIR,Air,1
 Node,1351,CONFERENCE_4 AIR NODE,Air,0
 Node,1352,CONFERENCE_4_Z26_RETURNAIR,Air,1
 Node,1353,BREAK_ROOM_4 AIR NODE,Air,0
 Node,1354,BREAK_ROOM_4_Z27_RETURNAIR,Air,1
 Node,1355,MECHANICAL_4 AIR NODE,Air,0
 Node,1356,MECHANICAL_4_Z28_RETURNAIR,Air,1
 Node,1357,OFFICE_OPEN_4 AIR NODE,Air,0
 Node,1358,OFFICE_OPEN_4_Z29_RETURNAIR,Air,1
 Node,1359,OFFICE_PRIVATE_4 AIR NODE,Air,0
 Node,1360,OFFICE_PRIVATE_4_Z30_RETURNAIR,Air,1
 Node,1361,STORAGE_4 AIR NODE,Air,0
 Node,1362,STORAGE_4_Z31_RETURNAIR,Air,1
 Node,1363,LOBBY_5 AIR NODE,Air,0
 Node,1364,LOBBY_5_Z32_RETURNAIR,Air,1
 Node,1365,CONFERENCE_5 AIR NODE,Air,0
 Node,1366,CONFERENCE_5_Z33_RETURNAIR,Air,1
 Node,1367,BREAK_ROOM_5 AIR NODE,Air,0
 Node,1368,BREAK_ROOM_5_Z34_RETURNAIR,Air,1
 Node,1369,MECHANICAL_5 AIR NODE,Air,0
 Node,1370,MECHANICAL_5_Z35_RETURNAIR,Air,1
 Node,1371,OFFICE_OPEN_5 AIR NODE,Air,0
 Node,1372,OFFICE_OPEN_5_Z36_RETURNAIR,Air,1
 Node,1373,OFFICE_PRIVATE_5 AIR NODE,Air,0
 Node,1374,OFFICE_PRIVATE_5_Z37_RETURNAIR,Air,1
 Node,1375,STORAGE_5 AIR NODE,Air,0
 Node,1376,STORAGE_5_Z38_RETURNAIR,Air,1
 Node,1377,CONFERENCE_6 AIR NODE,Air,0
 Node,1378,CONFERENCE_6_Z39_RETURNAIR,Air,1
 Node,1379,BREAK_ROOM_6 AIR NODE,Air,0
 Node,1380,BREAK_ROOM_6_Z40_RETURNAIR,Air,1
 Node,1381,OFFICE_OPEN_6 AIR NODE,Air,0
 Node,1382,OFFICE_OPEN_6_Z41_RETURNAIR,Air,1
 Node,1383,OFFICE_PRIVATE_6 AIR NODE,Air,0
 Node,1384,OFFICE_PRIVATE_6_Z42_RETURNAIR,Air,1
 Node,1385,STORAGE_6 AIR NODE,Air,0
 Node,1386,STORAGE_6_Z43_RETURNAIR,Air,1
 Node,1387,LOBBY_7 AIR NODE,Air,0
 Node,1388,LOBBY_7_Z44_RETURNAIR,Air,1
 Node,1389,CONFERENCE_7 AIR NODE,Air,0
 Node,1390,CONFERENCE_7_Z45_RETURNAIR,Air,1
 Node,1391,BREAK_ROOM_7 AIR NODE,Air,0
 Node,1392,BREAK_ROOM_7_Z46_RETURNAIR,Air,1
 Node,1393,MECHANICAL_7 AIR NODE,Air,0
 Node,1394,MECHANICAL_7_Z47_RETURNAIR,Air,1
 Node,1395,OFFICE_OPEN_7 AIR NODE,Air,0
 Node,1396,OFFICE_OPEN_7_Z48_RETURNAIR,Air,1
 Node,1397,OFFICE_PRIVATE_7 AIR NODE,Air,0
 Node,1398,OFFICE_PRIVATE_7_Z49_RETURNAIR,Air,1
 Node,1399,STORAGE_7 AIR NODE,Air,0
 Node,1400,STORAGE_7_Z50_RETURNAIR,Air,1
 Node,1401,LOBBY_8 AIR NODE,Air,0
 Node,1402,LOBBY_8_Z51_RETURNAIR,Air,1
 Node,1403,CONFERENCE_8 AIR NODE,Air,0
 Node,1404,CONFERENCE_8_Z52_RETURNAIR,Air,1
 Node,1405,BREAK_ROOM_8 AIR NODE,Air,0
 Node,1406,BREAK_ROOM_8_Z53_RETURNAIR,Air,1
 Node,1407,MECHANICAL_8 AIR NODE,Air,0
 Node,1408,MECHANICAL_8_Z54_RETURNAIR,Air,1
 Node,1409,OFFICE_OPEN_8 AIR NODE,Air,0
 Node,1410,OFFICE_OPEN_8_Z55_RETURNAIR,Air,1
 Node,1411,STORAGE_8 AIR NODE,Air,0
 Node,1412,STORAGE_8_Z56_RETURNAIR,Air,1
 Node,1413,LOBBY_9 AIR NODE,Air,0
 Node,1414,LOBBY_9_Z57_RETURNAIR,Air,1
 Node,1415,CONFERENCE_9 AIR NODE,Air,0
 Node,1416,CONFERENCE_9_Z58_RETURNAIR,Air,1
 Node,1417,BREAK_ROOM_9 AIR NODE,Air,0
 Node,1418,BREAK_ROOM_9_Z59_RETURNAIR,Air,1
 Node,1419,MECHANICAL_9 AIR NODE,Air,0
 Node,1420,MECHANICAL_9_Z60_RETURNAIR,Air,1
 Node,1421,OFFICE_OPEN_9 AIR NODE,Air,0
 Node,1422,OFFICE_OPEN_9_Z61_RETURNAIR,Air,1
 Node,1423,STORAGE_9 AIR NODE,Air,0
 Node,1424,STORAGE_9_Z62_RETURNAIR,Air,1
 Node,1425,LOBBY_10 AIR NODE,Air,0
 Node,1426,LOBBY_10_Z63_RETURNAIR,Air,1
 Node,1427,CONFERENCE_10 AIR NODE,Air,0
 Node,1428,CONFERENCE_10_Z64_RETURNAIR,Air,1
 Node,1429,BREAK_ROOM_10 AIR NODE,Air,0
 Node,1430,BREAK_ROOM_10_Z65_RETURNAIR,Air,1
 Node,1431,MECHANICAL_10 AIR NODE,Air,0
 Node,1432,MECHANICAL_10_Z66_RETURNAIR,Air,1
 Node,1433,OFFICE_OPEN_10 AIR NODE,Air,0
 Node,1434,OFFICE_OPEN_10_Z67_RETURNAIR,Air,1
 Node,1435,OFFICE_PRIVATE_10 AIR NODE,Air,0
 Node,1436,OFFICE_PRIVATE_10_Z68_RETURNAIR,Air,1
 Node,1437,STORAGE_10 AIR NODE,Air,0
 Node,1438,STORAGE_10_Z69_RETURNAIR,Air,1
 Node,1439,LOBBY_11 AIR NODE,Air,0
 Node,1440,LOBBY_11_Z70_RETURNAIR,Air,1
 Node,1441,CONFERENCE_11 AIR NODE,Air,0
 Node,1442,CONFERENCE_11_Z71_RETURNAIR,Air,1
 Node,1443,BREAK_ROOM_11 AIR NODE,Air,0
 Node,1444,BREAK_ROOM_11_Z72_RETURNAIR,Air,1
 Node,1445,MECHANICAL_11 AIR NODE,Air,0
 Node,1446,MECHANICAL_11_Z73_RETURNAIR,Air,1
 Node,1447,OFFICE_OPEN_11 AIR NODE,Air,0
 Node,1448,OFFICE_OPEN_11_Z74_RETURNAIR,Air,1
 Node,1449,OFFICE_PRIVATE_11 AIR NODE,Air,0
 Node,1450,OFFICE_PRIVATE_11_Z75_RETURNAIR,Air,1
 Node,1451,STORAGE_11 AIR NODE,Air,0
 Node,1452,STORAGE_11_Z76_RETURNAIR,Air,1
 Node,1453,LOBBY_12 AIR NODE,Air,0
 Node,1454,LOBBY_12_Z77_RETURNAIR,Air,1
 Node,1455,CONFERENCE_12 AIR NODE,Air,0
 Node,1456,CONFERENCE_12_Z78_RETURNAIR,Air,1
 Node,1457,BREAK_ROOM_12 AIR NODE,Air,0
 Node,1458,BREAK_ROOM_12_Z79_RETURNAIR,Air,1
 Node,1459,OFFICE_OPEN_12 AIR NODE,Air,0
 Node,1460,OFFICE_OPEN_12_Z80_RETURNAIR,Air,1
 Node,1461,OFFICE_PRIVATE_12 AIR NODE,Air,0
 Node,1462,OFFICE_PRIVATE_12_Z81_RETURNAIR,Air,1
 Node,1463,STORAGE_12 AIR NODE,Air,0
 Node,1464,STORAGE_12_Z82_RETURNAIR,Air,1
 Node,1465,LOBBY_13 AIR NODE,Air,0
 Node,1466,LOBBY_13_Z83_RETURNAIR,Air,1
 Node,1467,CONFERENCE_13 AIR NODE,Air,0
 Node,1468,CONFERENCE_13_Z84_RETURNAIR,Air,1
 Node,1469,BREAK_ROOM_13 AIR NODE,Air,0
 Node,1470,BREAK_ROOM_13_Z85_RETURNAIR,Air,1
 Node,1471,MECHANICAL_13 AIR NODE,Air,0
 Node,1472,MECHANICAL_13_Z86_RETURNAIR,Air,1
 Node,1473,OFFICE_OPEN_13 AIR NODE,Air,0
 Node,1474,OFFICE_OPEN_13_Z87_RETURNAIR,Air,1
 Node,1475,OFFICE_PRIVATE_13 AIR NODE,Air,0
 Node,1476,OFFICE_PRIVATE_13_Z88_RETURNAIR,Air,1
 Node,1477,LOBBY_14 AIR NODE,Air,0
 Node,1478,LOBBY_14_Z89_RETURNAIR,Air,1
 Node,1479,CONFERENCE_14 AIR NODE,Air,0
 Node,1480,CONFERENCE_14_Z90_RETURNAIR,Air,1
 Node,1481,BREAK_ROOM_14 AIR NODE,Air,0
 Node,1482,BREAK_ROOM_14_Z91_RETURNAIR,Air,1
 Node,1483,MECHANICAL_14 AIR NODE,Air,0
 Node,1484,MECHANICAL_14_Z92_RETURNAIR,Air,1
 Node,1485,OFFICE_PRIVATE_14 AIR NODE,Air,0
 Node,1486,OFFICE_PRIVATE_14_Z93_RETURNAIR,Air,1
 Node,1487,STORAGE_14 AIR NODE,Air,0
 Node,1488,STORAGE_14_Z94_RETURNAIR,Air,1
 Node,1489,LOBBY_15 AIR NODE,Air,0
 Node,1490,LOBBY_15_Z95_RETURNAIR,Air,1
 Node,1491,CONFERENCE_15 AIR NODE,Air,0
 Node,1492,CONFERENCE_15_Z96_RETURNAIR,Air,1
 Node,1493,BREAK_ROOM_15 AIR NODE,Air,0
 Node,1494,BREAK_ROOM_15_Z97_RETURNAIR,Air,1
 Node,1495,MECHANICAL_15 AIR NODE,Air,0
 Node,1496,MECHANICAL_15_Z98_RETURNAIR,Air,1
 Node,1497,OFFICE_OPEN_15 AIR NODE,Air,0
 Node,1498,OFFICE_OPEN_15_Z99_RETURNAIR,Air,1
 Node,1499,OFFICE_PRIVATE_15 AIR NODE,Air,0
 Node,1500,OFFICE_PRIVATE_15_Z100_RETURNAIR,Air,1
 Node,1501,STORAGE_15 AIR NODE,Air,0
 Node,1502,STORAGE_15_Z101_RETURNAIR,Air,1
 Node,1503,LOBBY_16 AIR NODE,Air,0
 Node,1504,LOBBY_16_Z102_RETURNAIR,Air,1
 Node,1505,CONFERENCE_16 AIR NODE,Air,0
 Node,1506,CONFERENCE_16_Z103_RETURNAIR,Air,1
 Node,1507,BREAK_ROOM_16 AIR NODE,Air,0
 Node,1508,BREAK_ROOM_16_Z104_RETURNAIR,Air,1
 Node,1509,MECHANICAL_16 AIR NODE,Air,0
 Node,1510,MECHANICAL_16_Z105_RETURNAIR,Air,1
 Node,1511,OFFICE_OPEN_16 AIR NODE,Air,0
 Node,1512,OFFICE_OPEN_16_Z106_RETURNAIR,Air,1
 Node,1513,OFFICE_PRIVATE_16 AIR NODE,Air,0
 Node,1514,OFFICE_PRIVATE_16_Z107_RETURNAIR,Air,1
 Node,1515,STORAGE_16 AIR NODE,Air,0
 Node,1516,STORAGE_16_Z108_RETURNAIR,Air,1
 Node,1517,LOBBY_17 AIR NODE,Air,0
 Node,1518,LOBBY_17_Z109_RETURNAIR,Air,1
 Node,1519,CONFERENCE_17 AIR NODE,Air,0
 Node,1520,CONFERENCE_17_Z110_RETURNAIR,Air,1
 Node,1521,BREAK_ROOM_17 AIR NODE,Air,0
 Node,1522,BREAK_ROOM_17_Z111_RETURNAIR,Air,1
 Node,1523,OFFICE_OPEN_17 AIR NODE,Air,0
 Node,1524,OFFICE_OPEN_17_Z112_RETURNAIR,Air,1
 Node,1525,OFFICE_PRIVATE_17 AIR NODE,Air,0
 Node,1526,OFFICE_PRIVATE_17_Z113_RETURNAIR,Air,1
 Node,1527,STORAGE_17 AIR NODE,Air,0
 Node,1528,STORAGE_17_Z114_RETURNAIR,Air,1
 Node,1529,LOBBY_18 AIR NODE,Air,0
 Node,1530,LOBBY_18_Z115_RETURNAIR,Air,1
 Node,1531,CONFERENCE_18 AIR NODE,Air,0
 Node,1532,CONFERENCE_18_Z116_RETURNAIR,Air,1
 Node,1533,BREAK_ROOM_18 AIR NODE,Air,0
 Node,1534,BREAK_ROOM_18_Z117_RETURNAIR,Air,1
 Node,1535,MECHANICAL_18 AIR NODE,Air,0
 Node,1536,MECHANICAL_18_Z118_RETURNAIR,Air,1
 Node,1537,OFFICE_OPEN_18 AIR NODE,Air,0
 Node,1538,OFFICE_OPEN_18_Z119_RETURNAIR,Air,1
 Node,1539,STORAGE_18 AIR NODE,Air,0
 Node,1540,STORAGE_18_Z120_RETURNAIR,Air,1
 Node,1541,LOBBY_19 AIR NODE,Air,0
 Node,1542,LOBBY_19_Z121_RETURNAIR,Air,1
 Node,1543,CONFERENCE_19 AIR NODE,Air,0
 Node,1544,CONFERENCE_19_Z122_RETURNAIR,Air,1
 Node,1545,BREAK_ROOM_19 AIR NODE,Air,0
 Node,1546,BREAK_ROOM_19_Z123_RETURNAIR,Air,1
 Node,1547,MECHANICAL_19 AIR NODE,Air,0
 Node,1548,MECHANICAL_19_Z124_RETURNAIR,Air,1
 Node,1549,OFFICE_OPEN_19 AIR NODE,Air,0
 Node,1550,OFFICE_OPEN_19_Z125_RETURNAIR,Air,1
 Node,1551,OFFICE_PRIVATE_19 AIR NODE,Air,0
 Node,1552,OFFICE_PRIVATE_19_Z126_RETURNAIR,Air,1
 Node,1553,STORAGE_19 AIR NODE,Air,0
 Node,1554,STORAGE_19_Z127_RETURNAIR,Air,1
 Node,1555,LOBBY_20 AIR NODE,Air,0
 Node,1556,LOBBY_20_Z128_RETURNAIR,Air,1
 Node,1557,CONFERENCE_20 AIR NODE,Air,0
 Node,1558,CONFERENCE_20_Z129_RETURNAIR,Air,1
 Node,1559,BREAK_ROOM_20 AIR NODE,Air,0
 Node,1560,BREAK_ROOM_20_Z130_RETURNAIR,Air,1
 Node,1561,MECHANICAL_20 AIR NODE,Air,0
 Node,1562,MECHANICAL_20_Z131_RETURNAIR,Air,1
 Node,1563,OFFICE_OPEN_20 AIR NODE,Air,0
 Node,1564,OFFICE_OPEN_20_Z132_RETURNAIR,Air,1
 Node,1565,OFFICE_PRIVATE_20 AIR NODE,Air,0
 Node,1566,OFFICE_PRIVATE_20_Z133_RETURNAIR,Air,1
 Node,1567,STORAGE_20 AIR NODE,Air,0
 Node,1568,STORAGE_20_Z134_RETURNAIR,Air,1
 Node,1569,LOBBY_21 AIR NODE,Air,0
 Node,1570,LOBBY_21_Z135_RETURNAIR,Air,1
 Node,1571,CONFERENCE_21 AIR NODE,Air,0
 Node,1572,CONFERENCE_21_Z136_RETURNAIR,Air,1
 Node,1573,MECHANICAL_21 AIR NODE,Air,0
 Node,1574,MECHANICAL_21_Z137_RETURNAIR,Air,1
 Node,1575,OFFICE_OPEN_21 AIR NODE,Air,0
 Node,1576,OFFICE_OPEN_21_Z138_RETURNAIR,Air,1
 Node,1577,STORAGE_21 AIR NODE,Air,0
 Node,1578,STORAGE_21_Z139_RETURNAIR,Air,1
 Node,1579,LOBBY_22 AIR NODE,Air,0
 Node,1580,LOBBY_22_Z140_RETURNAIR,Air,1
 Node,1581,CONFERENCE_22 AIR NODE,Air,0
 Node,1582,CONFERENCE_22_Z141_RETURNAIR,Air,1
 Node,1583,BREAK_ROOM_22 AIR NODE,Air,0
 Node,1584,BREAK_ROOM_22_Z142_RETURNAIR,Air,1
 Node,1585,MECHANICAL_22 AIR NODE,Air,0
 Node,1586,MECHANICAL_22_Z143_RETURNAIR,Air,1
 Node,1587,OFFICE_OPEN_22 AIR NODE,Air,0
 Node,1588,OFFICE_OPEN_22_Z144_RETURNAIR,Air,1
 Node,1589,OFFICE_PRIVATE_22 AIR NODE,Air,0
 Node,1590,OFFICE_PRIVATE_22_Z145_RETURNAIR,Air,1
 Node,1591,STORAGE_22 AIR NODE,Air,0
 Node,1592,STORAGE_22_Z146_RETURNAIR,Air,1
 Node,1593,LOBBY_23 AIR NODE,Air,0
 Node,1594,LOBBY_23_Z147_RETURNAIR,Air,1
 Node,1595,BREAK_ROOM_23 AIR NODE,Air,0
 Node,1596,BREAK_ROOM_23_Z148_RETURNAIR,Air,1
 Node,1597,MECHANICAL_23 AIR NODE,Air,0
 Node,1598,MECHANICAL_23_Z149_RETURNAIR,Air,1
 Node,1599,OFFICE_OPEN_23 AIR NODE,Air,0
 Node,1600,OFFICE_OPEN_23_Z150_RETURNAIR,Air,1
 Node,1601,OFFICE_PRIVATE_23 AIR NODE,Air,0
 Node,1602,OFFICE_PRIVATE_23_Z151_RETURNAIR,Air,1
 Node,1603,STORAGE_23 AIR NODE,Air,0
 Node,1604,STORAGE_23_Z152_RETURNAIR,Air,1
 Node,1605,LOBBY_24 AIR NODE,Air,0
 Node,1606,LOBBY_24_Z153_RETURNAIR,Air,1
 Node,1607,CONFERENCE_24 AIR NODE,Air,0
 Node,1608,CONFERENCE_24_Z154_RETURNAIR,Air,1
 Node,1609,BREAK_ROOM_24 AIR NODE,Air,0
 Node,1610,BREAK_ROOM_24_Z155_RETURNAIR,Air,1
 Node,1611,MECHANICAL_24 AIR NODE,Air,0
 Node,1612,MECHANICAL_24_Z156_RETURNAIR,Air,1
 Node,1613,OFFICE_OPEN_24 AIR NODE,Air,0
 Node,1614,OFFICE_OPEN_24_Z157_RETURNAIR,Air,1
 Node,1615,OFFICE_PRIVATE_24 AIR NODE,Air,0
 Node,1616,OFFICE_PRIVATE_24_Z158_RETURNAIR,Air,1
 Node,1617,STORAGE_24 AIR NODE,Air,0
 Node,1618,STORAGE_24_Z159_RETURNAIR,Air,1
 Node,1619,LOBBY_25 AIR NODE,Air,0
 Node,1620,LOBBY_25_Z160_RETURNAIR,Air,1
 Node,1621,CONFERENCE_25 AIR NODE,Air,0
 Node,1622,CONFERENCE_25_Z161_RETURNAIR,Air,1
 Node,1623,BREAK_ROOM_25 AIR NODE,Air,0
 Node,1624,BREAK_ROOM_25_Z162_RETURNAIR,Air,1
 Node,1625,MECHANICAL_25 AIR NODE,Air,0
 Node,1626,MECHANICAL_25_Z163_RETURNAIR,Air,1
 Node,1627,OFFICE_OPEN_25 AIR NODE,Air,0
 Node,1628,OFFICE_OPEN_25_Z164_RETURNAIR,Air,1
 Node,1629,OFFICE_PRIVATE_25 AIR NODE,Air,0
 Node,1630,OFFICE_PRIVATE_25_Z165_RETURNAIR,Air,1
 Node,1631,STORAGE_25 AIR NODE,Air,0
 Node,1632,STORAGE_25_Z166_RETURNAIR,Air,1
 Node,1633,LOBBY_26 AIR NODE,Air,0
 Node,1634,LOBBY_26_Z167_RETURNAIR,Air,1
 Node,1635,CONFERENCE_26 AIR NODE,Air,0
 Node,1636,CONFERENCE_26_Z168_RETURNAIR,Air,1
 Node,1637,BREAK_ROOM_26 AIR NODE,Air,0
 Node,1638,BREAK_ROOM_26_Z169_RETURNAIR,Air,1
 Node,1639,OFFICE_OPEN_26 AIR NODE,Air,0
 Node,1640,OFFICE_OPEN_26_Z170_RETURNAIR,Air,1
 Node,1641,OFFICE_PRIVATE_26 AIR NODE,Air,0
 Node,1642,OFFICE_PRIVATE_26_Z171_RETURNAIR,Air,1
 Node,1643,STORAGE_26 AIR NODE,Air,0
 Node,1644,STORAGE_26_Z172_RETURNAIR,Air,1
 Node,1645,LOBBY_27 AIR NODE,Air,0
 Node,1646,LOBBY_27_Z173_RETURNAIR,Air,1
 Node,1647,CONFERENCE_27 AIR NODE,Air,0
 Node,1648,CONFERENCE_27_Z174_RETURNAIR,Air,1
 Node,1649,BREAK_ROOM_27 AIR NODE,Air,0
 Node,1650,BREAK_ROOM_27_Z175_RETURNAIR,Air,1
 Node,1651,MECHANICAL_27 AIR NODE,Air,0
 Node,1652,MECHANICAL_27_Z176_RETURNAIR,Air,1
 Node,1653,OFFICE_OPEN_27 AIR NODE,Air,0
[...]
 Non-Parent Node Connection,MECHANICAL_28_Z183_SUPPLYINLET,COIL:COOLING:DX:SINGLESPEED,MECHANICAL_28_Z183_COOLINGCOILDX,Inlet,1
 Non-Parent Node Connection,MECHANICAL_28_Z183_COOLC-HEATCNODE,COIL:COOLING:DX:SINGLESPEED,MECHANICAL_28_Z183_COOLINGCOILDX,Outlet,1
 Non-Parent Node Connection,OFFICE_OPEN_28_Z184_SUPPLYINLET,COIL:COOLING:DX:SINGLESPEED,OFFICE_OPEN_28_Z184_COOLINGCOILDX,Inlet,1
 Non-Parent Node Connection,OFFICE_OPEN_28_Z184_COOLC-HEATCNODE,COIL:COOLING:DX:SINGLESPEED,OFFICE_OPEN_28_Z184_COOLINGCOILDX,Outlet,1
 Non-Parent Node Connection,STORAGE_28_Z185_SUPPLYINLET,COIL:COOLING:DX:SINGLESPEED,STORAGE_28_Z185_COOLINGCOILDX,Inlet,1
 Non-Parent Node Connection,STORAGE_28_Z185_COOLC-HEATCNODE,COIL:COOLING:DX:SINGLESPEED,STORAGE_28_Z185_COOLINGCOILDX,Outlet,1
 Non-Parent Node Connection,CONFERENCE_29_Z186_SUPPLYINLET,COIL:COOLING:DX:SINGLESPEED,CONFERENCE_29_Z186_COOLINGCOILDX,Inlet,1
 Non-Parent Node Connection,CONFERENCE_29_Z186_COOLC-HEATCNODE,COIL:COOLING:DX:SINGLESPEED,CONFERENCE_29_Z186_COOLINGCOILDX,Outlet,1
 Non-Parent Node Connection,BREAK_ROOM_29_Z187_SUPPLYINLET,COIL:COOLING:DX:SINGLESPEED,BREAK_ROOM_29_Z187_COOLINGCOILDX,Inlet,1
 Non-Parent Node Connection,BREAK_ROOM_29_Z187_COOLC-HEATCNODE,COIL:COOLING:DX:SINGLESPEED,BREAK_ROOM_29_Z187_COOLINGCOILDX,Outlet,1
 Non-Parent Node Connection,OFFICE_OPEN_29_Z188_SUPPLYINLET,COIL:COOLING:DX:SINGLESPEED,OFFICE_OPEN_29_Z188_COOLINGCOILDX,Inlet,1
 Non-Parent Node Connection,OFFICE_OPEN_29_Z188_COOLC-HEATCNODE,COIL:COOLING:DX:SINGLESPEED,OFFICE_OPEN_29_Z188_COOLINGCOILDX,Outlet,1
 Non-Parent Node Connection,OFFICE_PRIVATE_29_Z189_SUPPLYINLET,COIL:COOLING:DX:SINGLESPEED,OFFICE_PRIVATE_29_Z189_COOLINGCOILDX,Inlet,1
 Non-Parent Node Connection,OFFICE_PRIVATE_29_Z189_COOLC-HEATCNODE,COIL:COOLING:DX:SINGLESPEED,OFFICE_PRIVATE_29_Z189_COOLINGCOILDX,Outlet,1
 Non-Parent Node Connection,STORAGE_29_Z190_SUPPLYINLET,COIL:COOLING:DX:SINGLESPEED,STORAGE_29_Z190_COOLINGCOILDX,Inlet,1
 Non-Parent Node Connection,STORAGE_29_Z190_COOLC-HEATCNODE,COIL:COOLING:DX:SINGLESPEED,STORAGE_29_Z190_COOLINGCOILDX,Outlet,1
 Non-Parent Node Connection,LOBBY_30_Z191_SUPPLYINLET,COIL:COOLING:DX:SINGLESPEED,LOBBY_30_Z191_COOLINGCOILDX,Inlet,1
 Non-Parent Node Connection,LOBBY_30_Z191_COOLC-HEATCNODE,COIL:COOLING:DX:SINGLESPEED,LOBBY_30_Z191_COOLINGCOILDX,Outlet,1
 Non-Parent Node Connection,CONFERENCE_30_Z192_SUPPLYINLET,COIL:COOLING:DX:SINGLESPEED,CONFERENCE_30_Z192_COOLINGCOILDX,Inlet,1
 Non-Parent Node Connection,CONFERENCE_30_Z192_COOLC-HEATCNODE,COIL:COOLING:DX:SINGLESPEED,CONFERENCE_30_Z192_COOLINGCOILDX,Outlet,1
 Non-Parent Node Connection,BREAK_ROOM_30_Z193_SUPPLYINLET,COIL:COOLING:DX:SINGLESPEED,BREAK_ROOM_30_Z193_COOLINGCOILDX,Inlet,1
 Non-Parent Node Connection,BREAK_ROOM_30_Z193_COOLC-HEATCNODE,COIL:COOLING:DX:SINGLESPEED,BREAK_ROOM_30_Z193_COOLINGCOILDX,Outlet,1
 Non-Parent Node Connection,MECHANICAL_30_Z194_SUPPLYINLET,COIL:COOLING:DX:SINGLESPEED,MECHANICAL_30_Z194_COOLINGCOILDX,Inlet,1
 Non-Parent Node Connection,MECHANICAL_30_Z194_COOLC-HEATCNODE,COIL:COOLING:DX:SINGLESPEED,MECHANICAL_30_Z194_COOLINGCOILDX,Outlet,1
 Non-Parent Node Connection,OFFICE_OPEN_30_Z195_SUPPLYINLET,COIL:COOLING:DX:SINGLESPEED,OFFICE_OPEN_30_Z195_COOLINGCOILDX,Inlet,1
 Non-Parent Node Connection,OFFICE_OPEN_30_Z195_COOLC-HEATCNODE,COIL:COOLING:DX:SINGLESPEED,OFFICE_OPEN_30_Z195_COOLINGCOILDX,Outlet,1
 Non-Parent Node Connection,OFFICE_PRIVATE_30_Z196_SUPPLYINLET,COIL:COOLING:DX:SINGLESPEED,OFFICE_PRIVATE_30_Z196_COOLINGCOILDX,Inlet,1
 Non-Parent Node Connection,OFFICE_PRIVATE_30_Z196_COOLC-HEATCNODE,COIL:COOLING:DX:SINGLESPEED,OFFICE_PRIVATE_30_Z196_COOLINGCOILDX,Outlet,1
 Non-Parent Node Connection,STORAGE_30_Z197_SUPPLYINLET,COIL:COOLING:DX:SINGLESPEED,STORAGE_30_Z197_COOLINGCOILDX,Inlet,1
 Non-Parent Node Connection,STORAGE_30_Z197_COOLC-HEATCNODE,COIL:COOLING:DX:SINGLESPEED,STORAGE_30_Z197_COOLINGCOILDX,Outlet,1
 Non-Parent Node Connection,LOBBY_31_Z198_SUPPLYINLET,COIL:COOLING:DX:SINGLESPEED,LOBBY_31_Z198_COOLINGCOILDX,Inlet,1
 Non-Parent Node Connection,LOBBY_31_Z198_COOLC-HEATCNODE,COIL:COOLING:DX:SINGLESPEED,LOBBY_31_Z198_COOLINGCOILDX,Outlet,1
 Non-Parent Node Connection,CONFERENCE_31_Z199_SUPPLYINLET,COIL:COOLING:DX:SINGLESPEED,CONFERENCE_31_Z199_COOLINGCOILDX,Inlet,1
 Non-Parent Node Connection,CONFERENCE_31_Z199_COOLC-HEATCNODE,COIL:COOLING:DX:SINGLESPEED,CONFERENCE_31_Z199_COOLINGCOILDX,Outlet,1
 Non-Parent Node Connection,BREAK_ROOM_31_Z200_SUPPLYINLET,COIL:COOLING:DX:SINGLESPEED,BREAK_ROOM_31_Z200_COOLINGCOILDX,Inlet,1
 Non-Parent Node Connection,BREAK_ROOM_31_Z200_COOLC-HEATCNODE,COIL:COOLING:DX:SINGLESPEED,BREAK_ROOM_31_Z200_COOLINGCOILDX,Outlet,1
 Non-Parent Node Connection,MECHANICAL_31_Z201_SUPPLYINLET,COIL:COOLING:DX:SINGLESPEED,MECHANICAL_31_Z201_COOLINGCOILDX,Inlet,1
 Non-Parent Node Connection,MECHANICAL_31_Z201_COOLC-HEATCNODE,COIL:COOLING:DX:SINGLESPEED,MECHANICAL_31_Z201_COOLINGCOILDX,Outlet,1
 Non-Parent Node Connection,OFFICE_OPEN_31_Z202_SUPPLYINLET,COIL:COOLING:DX:SINGLESPEED,OFFICE_OPEN_31_Z202_COOLINGCOILDX,Inlet,1
 Non-Parent Node Connection,OFFICE_OPEN_31_Z202_COOLC-HEATCNODE,COIL:COOLING:DX:SINGLESPEED,OFFICE_OPEN_31_Z202_COOLINGCOILDX,Outlet,1
 Non-Parent Node Connection,OFFICE_PRIVATE_31_Z203_SUPPLYINLET,COIL:COOLING:DX:SINGLESPEED,OFFICE_PRIVATE_31_Z203_COOLINGCOILDX,Inlet,1
 Non-Parent Node Connection,OFFICE_PRIVATE_31_Z203_COOLC-HEATCNODE,COIL:COOLING:DX:SINGLESPEED,OFFICE_PRIVATE_31_Z203_COOLINGCOILDX,Outlet,1
 Non-Parent Node Connection,STORAGE_31_Z204_SUPPLYINLET,COIL:COOLING:DX:SINGLESPEED,STORAGE_31_Z204_COOLINGCOILDX,Inlet,1
 Non-Parent Node Connection,STORAGE_31_Z204_COOLC-HEATCNODE,COIL:COOLING:DX:SINGLESPEED,STORAGE_31_Z204_COOLINGCOILDX,Outlet,1
 Non-Parent Node Connection,CONFERENCE_32_Z205_SUPPLYINLET,COIL:COOLING:DX:SINGLESPEED,CONFERENCE_32_Z205_COOLINGCOILDX,Inlet,1
 Non-Parent Node Connection,CONFERENCE_32_Z205_COOLC-HEATCNODE,COIL:COOLING:DX:SINGLESPEED,CONFERENCE_32_Z205_COOLINGCOILDX,Outlet,1
 Non-Parent Node Connection,BREAK_ROOM_32_Z206_SUPPLYINLET,COIL:COOLING:DX:SINGLESPEED,BREAK_ROOM_32_Z206_COOLINGCOILDX,Inlet,1
 Non-Parent Node Connection,BREAK_ROOM_32_Z206_COOLC-HEATCNODE,COIL:COOLING:DX:SINGLESPEED,BREAK_ROOM_32_Z206_COOLINGCOILDX,Outlet,1
 Non-Parent Node Connection,MECHANICAL_32_Z207_SUPPLYINLET,COIL:COOLING:DX:SINGLESPEED,MECHANICAL_32_Z207_COOLINGCOILDX,Inlet,1
 Non-Parent Node Connection,MECHANICAL_32_Z207_COOLC-HEATCNODE,COIL:COOLING:DX:SINGLESPEED,MECHANICAL_32_Z207_COOLINGCOILDX,Outlet,1
 Non-Parent Node Connection,OFFICE_OPEN_32_Z208_SUPPLYINLET,COIL:COOLING:DX:SINGLESPEED,OFFICE_OPEN_32_Z208_COOLINGCOILDX,Inlet,1
 Non-Parent Node Connection,OFFICE_OPEN_32_Z208_COOLC-HEATCNODE,COIL:COOLING:DX:SINGLESPEED,OFFICE_OPEN_32_Z208_COOLINGCOILDX,Outlet,1
 Non-Parent Node Connection,OFFICE_PRIVATE_32_Z209_SUPPLYINLET,COIL:COOLING:DX:SINGLESPEED,OFFICE_PRIVATE_32_Z209_COOLINGCOILDX,Inlet,1
 Non-Parent Node Connection,OFFICE_PRIVATE_32_Z209_COOLC-HEATCNODE,COIL:COOLING:DX:SINGLESPEED,OFFICE_PRIVATE_32_Z209_COOLINGCOILDX,Outlet,1
 Non-Parent Node Connection,STORAGE_32_Z210_SUPPLYINLET,COIL:COOLING:DX:SINGLESPEED,STORAGE_32_Z210_COOLINGCOILDX,Inlet,1
 Non-Parent Node Connection,STORAGE_32_Z210_COOLC-HEATCNODE,COIL:COOLING:DX:SINGLESPEED,STORAGE_32_Z210_COOLINGCOILDX,Outlet,1
 Non-Parent Node Connection,LOBBY_33_Z211_SUPPLYINLET,COIL:COOLING:DX:SINGLESPEED,LOBBY_33_Z211_COOLINGCOILDX,Inlet,1
 Non-Parent Node Connection,LOBBY_33_Z211_COOLC-HEATCNODE,COIL:COOLING:DX:SINGLESPEED,LOBBY_33_Z211_COOLINGCOILDX,Outlet,1
 Non-Parent Node Connection,CONFERENCE_33_Z212_SUPPLYINLET,COIL:COOLING:DX:SINGLESPEED,CONFERENCE_33_Z212_COOLINGCOILDX,Inlet,1
 Non-Parent Node Connection,CONFERENCE_33_Z212_COOLC-HEATCNODE,COIL:COOLING:DX:SINGLESPEED,CONFERENCE_33_Z212_COOLINGCOILDX,Outlet,1
 Non-Parent Node Connection,BREAK_ROOM_33_Z213_SUPPLYINLET,COIL:COOLING:DX:SINGLESPEED,BREAK_ROOM_33_Z213_COOLINGCOILDX,Inlet,1
 Non-Parent Node Connection,BREAK_ROOM_33_Z213_COOLC-HEATCNODE,COIL:COOLING:DX:SINGLESPEED,BREAK_ROOM_33_Z213_COOLINGCOILDX,Outlet,1
 Non-Parent Node Connection,MECHANICAL_33_Z214_SUPPLYINLET,COIL:COOLING:DX:SINGLESPEED,MECHANICAL_33_Z214_COOLINGCOILDX,Inlet,1
 Non-Parent Node Connection,MECHANICAL_33_Z214_COOLC-HEATCNODE,COIL:COOLING:DX:SINGLESPEED,MECHANICAL_33_Z214_COOLINGCOILDX,Outlet,1
 Non-Parent Node Connection,OFFICE_OPEN_33_Z215_SUPPLYINLET,COIL:COOLING:DX:SINGLESPEED,OFFICE_OPEN_33_Z215_COOLINGCOILDX,Inlet,1
 Non-Parent Node Connection,OFFICE_OPEN_33_Z215_COOLC-HEATCNODE,COIL:COOLING:DX:SINGLESPEED,OFFICE_OPEN_33_Z215_COOLINGCOILDX,Outlet,1
 Non-Parent Node Connection,OFFICE_PRIVATE_33_Z216_SUPPLYINLET,COIL:COOLING:DX:SINGLESPEED,OFFICE_PRIVATE_33_Z216_COOLINGCOILDX,Inlet,1
 Non-Parent Node Connection,OFFICE_PRIVATE_33_Z216_COOLC-HEATCNODE,COIL:COOLING:DX:SINGLESPEED,OFFICE_PRIVATE_33_Z216_COOLINGCOILDX,Outlet,1
 Non-Parent Node Connection,STORAGE_33_Z217_SUPPLYINLET,COIL:COOLING:DX:SINGLESPEED,STORAGE_33_Z217_COOLINGCOILDX,Inlet,1
 Non-Parent Node Connection,STORAGE_33_Z217_COOLC-HEATCNODE,COIL:COOLING:DX:SINGLESPEED,STORAGE_33_Z217_COOLINGCOILDX,Outlet,1
 Non-Parent Node Connection,LOBBY_34_Z218_SUPPLYINLET,COIL:COOLING:DX:SINGLESPEED,LOBBY_34_Z218_COOLINGCOILDX,Inlet,1
 Non-Parent Node Connection,LOBBY_34_Z218_COOLC-HEATCNODE,COIL:COOLING:DX:SINGLESPEED,LOBBY_34_Z218_COOLINGCOILDX,Outlet,1
 Non-Parent Node Connection,BREAK_ROOM_34_Z219_SUPPLYINLET,COIL:COOLING:DX:SINGLESPEED,BREAK_ROOM_34_Z219_COOLINGCOILDX,Inlet,1
 Non-Parent Node Connection,BREAK_ROOM_34_Z219_COOLC-HEATCNODE,COIL:COOLING:DX:SINGLESPEED,BREAK_ROOM_34_Z219_COOLINGCOILDX,Outlet,1
 Non-Parent Node Connection,MECHANICAL_34_Z220_SUPPLYINLET,COIL:COOLING:DX:SINGLESPEED,MECHANICAL_34_Z220_COOLINGCOILDX,Inlet,1
 Non-Parent Node Connection,MECHANICAL_34_Z220_COOLC-HEATCNODE,COIL:COOLING:DX:SINGLESPEED,MECHANICAL_34_Z220_COOLINGCOILDX,Outlet,1
 Non-Parent Node Connection,OFFICE_OPEN_34_Z221_SUPPLYINLET,COIL:COOLING:DX:SINGLESPEED,OFFICE_OPEN_34_Z221_COOLINGCOILDX,Inlet,1
 Non-Parent Node Connection,OFFICE_OPEN_34_Z221_COOLC-HEATCNODE,COIL:COOLING:DX:SINGLESPEED,OFFICE_OPEN_34_Z221_COOLINGCOILDX,Outlet,1
 Non-Parent Node Connection,OFFICE_PRIVATE_34_Z222_SUPPLYINLET,COIL:COOLING:DX:SINGLESPEED,OFFICE_PRIVATE_34_Z222_COOLINGCOILDX,Inlet,1
 Non-Parent Node Connection,OFFICE_PRIVATE_34_Z222_COOLC-HEATCNODE,COIL:COOLING:DX:SINGLESPEED,OFFICE_PRIVATE_34_Z222_COOLINGCOILDX,Outlet,1
 Non-Parent Node Connection,STORAGE_34_Z223_SUPPLYINLET,COIL:COOLING:DX:SINGLESPEED,STORAGE_34_Z223_COOLINGCOILDX,Inlet,1
 Non-Parent Node Connection,STORAGE_34_Z223_COOLC-HEATCNODE,COIL:COOLING:DX:SINGLESPEED,STORAGE_34_Z223_COOLINGCOILDX,Outlet,1
 Non-Parent Node Connection,LOBBY_35_Z224_SUPPLYINLET,COIL:COOLING:DX:SINGLESPEED,LOBBY_35_Z224_COOLINGCOILDX,Inlet,1
 Non-Parent Node Connection,LOBBY_35_Z224_COOLC-HEATCNODE,COIL:COOLING:DX:SINGLESPEED,LOBBY_35_Z224_COOLINGCOILDX,Outlet,1
 Non-Parent Node Connection,BREAK_ROOM_35_Z225_SUPPLYINLET,COIL:COOLING:DX:SINGLESPEED,BREAK_ROOM_35_Z225_COOLINGCOILDX,Inlet,1
 Non-Parent Node Connection,BREAK_ROOM_35_Z225_COOLC-HEATCNODE,COIL:COOLING:DX:SINGLESPEED,BREAK_ROOM_35_Z225_COOLINGCOILDX,Outlet,1
 Non-Parent Node Connection,MECHANICAL_35_Z226_SUPPLYINLET,COIL:COOLING:DX:SINGLESPEED,MECHANICAL_35_Z226_COOLINGCOILDX,Inlet,1
 Non-Parent Node Connection,MECHANICAL_35_Z226_COOLC-HEATCNODE,COIL:COOLING:DX:SINGLESPEED,MECHANICAL_35_Z226_COOLINGCOILDX,Outlet,1
 Non-Parent Node Connection,OFFICE_OPEN_35_Z227_SUPPLYINLET,COIL:COOLING:DX:SINGLESPEED,OFFICE_OPEN_35_Z227_COOLINGCOILDX,Inlet,1
 Non-Parent Node Connection,OFFICE_OPEN_35_Z227_COOLC-HEATCNODE,COIL:COOLING:DX:SINGLESPEED,OFFICE_OPEN_35_Z227_COOLINGCOILDX,Outlet,1
 Non-Parent Node Connection,OFFICE_PRIVATE_35_Z228_SUPPLYINLET,COIL:COOLING:DX:SINGLESPEED,OFFICE_PRIVATE_35_Z228_COOLINGCOILDX,Inlet,1
 Non-Parent Node Connection,OFFICE_PRIVATE_35_Z228_COOLC-HEATCNODE,COIL:COOLING:DX:SINGLESPEED,OFFICE_PRIVATE_35_Z228_COOLINGCOILDX,Outlet,1
 Non-Parent Node Connection,STORAGE_35_Z229_SUPPLYINLET,COIL:COOLING:DX:SINGLESPEED,STORAGE_35_Z229_COOLINGCOILDX,Inlet,1
 Non-Parent Node Connection,STORAGE_35_Z229_COOLC-HEATCNODE,COIL:COOLING:DX:SINGLESPEED,STORAGE_35_Z229_COOLINGCOILDX,Outlet,1
 Non-Parent Node Connection,LOBBY_36_Z230_SUPPLYINLET,COIL:COOLING:DX:SINGLESPEED,LOBBY_36_Z230_COOLINGCOILDX,Inlet,1
 Non-Parent Node Connection,LOBBY_36_Z230_COOLC-HEATCNODE,COIL:COOLING:DX:SINGLESPEED,LOBBY_36_Z230_COOLINGCOILDX,Outlet,1
 Non-Parent Node Connection,CONFERENCE_36_Z231_SUPPLYINLET,COIL:COOLING:DX:SINGLESPEED,CONFERENCE_36_Z231_COOLINGCOILDX,Inlet,1
 Non-Parent Node Connection,CONFERENCE_36_Z231_COOLC-HEATCNODE,COIL:COOLING:DX:SINGLESPEED,CONFERENCE_36_Z231_COOLINGCOILDX,Outlet,1
 Non-Parent Node Connection,BREAK_ROOM_36_Z232_SUPPLYINLET,COIL:COOLING:DX:SINGLESPEED,BREAK_ROOM_36_Z232_COOLINGCOILDX,Inlet,1
 Non-Parent Node Connection,BREAK_ROOM_36_Z232_COOLC-HEATCNODE,COIL:COOLING:DX:SINGLESPEED,BREAK_ROOM_36_Z232_COOLINGCOILDX,Outlet,1
 Non-Parent Node Connection,MECHANICAL_36_Z233_SUPPLYINLET,COIL:COOLING:DX:SINGLESPEED,MECHANICAL_36_Z233_COOLINGCOILDX,Inlet,1
 Non-Parent Node Connection,MECHANICAL_36_Z233_COOLC-HEATCNODE,COIL:COOLING:DX:SINGLESPEED,MECHANICAL_36_Z233_COOLINGCOILDX,Outlet,1
 Non-Parent Node Connection,OFFICE_OPEN_36_Z234_SUPPLYINLET,COIL:COOLING:DX:SINGLESPEED,OFFICE_OPEN_36_Z234_COOLINGCOILDX,Inlet,1
 Non-Parent Node Connection,OFFICE_OPEN_36_Z234_COOLC-HEATCNODE,COIL:COOLING:DX:SINGLESPEED,OFFICE_OPEN_36_Z234_COOLINGCOILDX,Outlet,1
 Non-Parent Node Connection,OFFICE_PRIVATE_36_Z235_SUPPLYINLET,COIL:COOLING:DX:SINGLESPEED,OFFICE_PRIVATE_36_Z235_COOLINGCOILDX,Inlet,1
 Non-Parent Node Connection,OFFICE_PRIVATE_36_Z235_COOLC-HEATCNODE,COIL:COOLING:DX:SINGLESPEED,OFFICE_PRIVATE_36_Z235_COOLINGCOILDX,Outlet,1
 Non-Parent Node Connection,STORAGE_36_Z236_SUPPLYINLET,COIL:COOLING:DX:SINGLESPEED,STORAGE_36_Z236_COOLINGCOILDX,Inlet,1
 Non-Parent Node Connection,STORAGE_36_Z236_COOLC-HEATCNODE,COIL:COOLING:DX:SINGLESPEED,STORAGE_36_Z236_COOLINGCOILDX,Outlet,1
 Non-Parent Node Connection,LOBBY_37_Z237_SUPPLYINLET,COIL:COOLING:DX:SINGLESPEED,LOBBY_37_Z237_COOLINGCOILDX,Inlet,1
 Non-Parent Node Connection,LOBBY_37_Z237_COOLC-HEATCNODE,COIL:COOLING:DX:SINGLESPEED,LOBBY_37_Z237_COOLINGCOILDX,Outlet,1
 Non-Parent Node Connection,CONFERENCE_37_Z238_SUPPLYINLET,COIL:COOLING:DX:SINGLESPEED,CONFERENCE_37_Z238_COOLINGCOILDX,Inlet,1
 Non-Parent Node Connection,CONFERENCE_37_Z238_COOLC-HEATCNODE,COIL:COOLING:DX:SINGLESPEED,CONFERENCE_37_Z238_COOLINGCOILDX,Outlet,1
 Non-Parent Node Connection,BREAK_ROOM_37_Z239_SUPPLYINLET,COIL:COOLING:DX:SINGLESPEED,BREAK_ROOM_37_Z239_COOLINGCOILDX,Inlet,1
 Non-Parent Node Connection,BREAK_ROOM_37_Z239_COOLC-HEATCNODE,COIL:COOLING:DX:SINGLESPEED,BREAK_ROOM_37_Z239_COOLINGCOILDX,Outlet,1
 Non-Parent Node Connection,MECHANICAL_37_Z240_SUPPLYINLET,COIL:COOLING:DX:SINGLESPEED,MECHANICAL_37_Z240_COOLINGCOILDX,Inlet,1
 Non-Parent Node Connection,MECHANICAL_37_Z240_COOLC-HEATCNODE,COIL:COOLING:DX:SINGLESPEED,MECHANICAL_37_Z240_COOLINGCOILDX,Outlet,1
 Non-Parent Node Connection,OFFICE_PRIVATE_37_Z241_SUPPLYINLET,COIL:COOLING:DX:SINGLESPEED,OFFICE_PRIVATE_37_Z241_COOLINGCOILDX,Inlet,1
 Non-Parent Node Connection,OFFICE_PRIVATE_37_Z241_COOLC-HEATCNODE,COIL:COOLING:DX:SINGLESPEED,OFFICE_PRIVATE_37_Z241_COOLINGCOILDX,Outlet,1
 Non-Parent Node Connection,STORAGE_37_Z242_SUPPLYINLET,COIL:COOLING:DX:SINGLESPEED,STORAGE_37_Z242_COOLINGCOILDX,Inlet,1
 Non-Parent Node Connection,STORAGE_37_Z242_COOLC-HEATCNODE,COIL:COOLING:DX:SINGLESPEED,STORAGE_37_Z242_COOLINGCOILDX,Outlet,1
 Non-Parent Node Connection,LOBBY_38_Z243_SUPPLYINLET,COIL:COOLING:DX:SINGLESPEED,LOBBY_38_Z243_COOLINGCOILDX,Inlet,1
 Non-Parent Node Connection,LOBBY_38_Z243_COOLC-HEATCNODE,COIL:COOLING:DX:SINGLESPEED,LOBBY_38_Z243_COOLINGCOILDX,Outlet,1
 Non-Parent Node Connection,CONFERENCE_38_Z244_SUPPLYINLET,COIL:COOLING:DX:SINGLESPEED,CONFERENCE_38_Z244_COOLINGCOILDX,Inlet,1
 Non-Parent Node Connection,CONFERENCE_38_Z244_COOLC-HEATCNODE,COIL:COOLING:DX:SINGLESPEED,CONFERENCE_38_Z244_COOLINGCOILDX,Outlet,1
 Non-Parent Node Connection,BREAK_ROOM_38_Z245_SUPPLYINLET,COIL:COOLING:DX:SINGLESPEED,BREAK_ROOM_38_Z245_COOLINGCOILDX,Inlet,1
 Non-Parent Node Connection,BREAK_ROOM_38_Z245_COOLC-HEATCNODE,COIL:COOLING:DX:SINGLESPEED,BREAK_ROOM_38_Z245_COOLINGCOILDX,Outlet,1
 Non-Parent Node Connection,MECHANICAL_38_Z246_SUPPLYINLET,COIL:COOLING:DX:SINGLESPEED,MECHANICAL_38_Z246_COOLINGCOILDX,Inlet,1
 Non-Parent Node Connection,MECHANICAL_38_Z246_COOLC-HEATCNODE,COIL:COOLING:DX:SINGLESPEED,MECHANICAL_38_Z246_COOLINGCOILDX,Outlet,1
 Non-Parent Node Connection,OFFICE_PRIVATE_38_Z247_SUPPLYINLET,COIL:COOLING:DX:SINGLESPEED,OFFICE_PRIVATE_38_Z247_COOLINGCOILDX,Inlet,1
 Non-Parent Node Connection,OFFICE_PRIVATE_38_Z247_COOLC-HEATCNODE,COIL:COOLING:DX:SINGLESPEED,OFFICE_PRIVATE_38_Z247_COOLINGCOILDX,Outlet,1
 Non-Parent Node Connection,LOBBY_39_Z248_SUPPLYINLET,COIL:COOLING:DX:SINGLESPEED,LOBBY_39_Z248_COOLINGCOILDX,Inlet,1
 Non-Parent Node Connection,LOBBY_39_Z248_COOLC-HEATCNODE,COIL:COOLING:DX:SINGLESPEED,LOBBY_39_Z248_COOLINGCOILDX,Outlet,1
 Non-Parent Node Connection,CONFERENCE_39_Z249_SUPPLYINLET,COIL:COOLING:DX:SINGLESPEED,CONFERENCE_39_Z249_COOLINGCOILDX,Inlet,1
 Non-Parent Node Connection,CONFERENCE_39_Z249_COOLC-HEATCNODE,COIL:COOLING:DX:SINGLESPEED,CONFERENCE_39_Z249_COOLINGCOILDX,Outlet,1
 Non-Parent Node Connection,BREAK_ROOM_39_Z250_SUPPLYINLET,COIL:COOLING:DX:SINGLESPEED,BREAK_ROOM_39_Z250_COOLINGCOILDX,Inlet,1
 Non-Parent Node Connection,BREAK_ROOM_39_Z250_COOLC-HEATCNODE,COIL:COOLING:DX:SINGLESPEED,BREAK_ROOM_39_Z250_COOLINGCOILDX,Outlet,1
 Non-Parent Node Connection,MECHANICAL_39_Z251_SUPPLYINLET,COIL:COOLING:DX:SINGLESPEED,MECHANICAL_39_Z251_COOLINGCOILDX,Inlet,1
 Non-Parent Node Connection,MECHANICAL_39_Z251_COOLC-HEATCNODE,COIL:COOLING:DX:SINGLESPEED,MECHANICAL_39_Z251_COOLINGCOILDX,Outlet,1
 Non-Parent Node Connection,OFFICE_OPEN_39_Z252_SUPPLYINLET,COIL:COOLING:DX:SINGLESPEED,OFFICE_OPEN_39_Z252_COOLINGCOILDX,Inlet,1
 Non-Parent Node Connection,OFFICE_OPEN_39_Z252_COOLC-HEATCNODE,COIL:COOLING:DX:SINGLESPEED,OFFICE_OPEN_39_Z252_COOLINGCOILDX,Outlet,1
 Non-Parent Node Connection,OFFICE_PRIVATE_39_Z253_SUPPLYINLET,COIL:COOLING:DX:SINGLESPEED,OFFICE_PRIVATE_39_Z253_COOLINGCOILDX,Inlet,1
 Non-Parent Node Connection,OFFICE_PRIVATE_39_Z253_COOLC-HEATCNODE,COIL:COOLING:DX:SINGLESPEED,OFFICE_PRIVATE_39_Z253_COOLINGCOILDX,Outlet,1
 Non-Parent Node Connection,STORAGE_39_Z254_SUPPLYINLET,COIL:COOLING:DX:SINGLESPEED,STORAGE_39_Z254_COOLINGCOILDX,Inlet,1
 Non-Parent Node Connection,STORAGE_39_Z254_COOLC-HEATCNODE,COIL:COOLING:DX:SINGLESPEED,STORAGE_39_Z254_COOLINGCOILDX,Outlet,1
 Non-Parent Node Connection,LOBBY_40_Z255_SUPPLYINLET,COIL:COOLING:DX:SINGLESPEED,LOBBY_40_Z255_COOLINGCOILDX,Inlet,1
 Non-Parent Node Connection,LOBBY_40_Z255_COOLC-HEATCNODE,COIL:COOLING:DX:SINGLESPEED,LOBBY_40_Z255_COOLINGCOILDX,Outlet,1
 Non-Parent Node Connection,CONFERENCE_40_Z256_SUPPLYINLET,COIL:COOLING:DX:SINGLESPEED,CONFERENCE_40_Z256_COOLINGCOILDX,Inlet,1
 Non-Parent Node Connection,CONFERENCE_40_Z256_COOLC-HEATCNODE,COIL:COOLING:DX:SINGLESPEED,CONFERENCE_40_Z256_COOLINGCOILDX,Outlet,1
 Non-Parent Node Connection,BREAK_ROOM_40_Z257_SUPPLYINLET,COIL:COOLING:DX:SINGLESPEED,BREAK_ROOM_40_Z257_COOLINGCOILDX,Inlet,1
 Non-Parent Node Connection,BREAK_ROOM_40_Z257_COOLC-HEATCNODE,COIL:COOLING:DX:SINGLESPEED,BREAK_ROOM_40_Z257_COOLINGCOILDX,Outlet,1
 Non-Parent Node Connection,MECHANICAL_40_Z258_SUPPLYINLET,COIL:COOLING:DX:SINGLESPEED,MECHANICAL_40_Z258_COOLINGCOILDX,Inlet,1
 Non-Parent Node Connection,MECHANICAL_40_Z258_COOLC-HEATCNODE,COIL:COOLING:DX:SINGLESPEED,MECHANICAL_40_Z258_COOLINGCOILDX,Outlet,1
 Non-Parent Node Connection,OFFICE_OPEN_40_Z259_SUPPLYINLET,COIL:COOLING:DX:SINGLESPEED,OFFICE_OPEN_40_Z259_COOLINGCOILDX,Inlet,1
 Non-Parent Node Con