Program Version,EnergyPlus, Version 24.2.0-94a887817b, YMD=2025.11.02 10:35
! <Version>, Version ID
 Version, 24.2.0
! <Timesteps per Hour>, #TimeSteps, Minutes per TimeStep {minutes}
 Timesteps per Hour,  4, 15
! <System Convergence Limits>, Minimum System TimeStep {minutes}, Max HVAC Iterations, Minimum Plant Iterations, Maximum Plant Iterations
 System Convergence Limits, 1, 20, 2, 8
! <Simulation Control>, Do Zone Sizing, Do System Sizing, Do Plant Sizing, Do Design Days, Do Weather Simulation, Do HVAC Sizing Simulation
 Simulation Control, No, No, No, No, Yes, No
! <Performance Precision Tradeoffs>, Use Coil Direct Simulation, Zone Radiant Exchange Algorithm, Override Mode, Number of Timestep In Hour, Force Euler Method, Minimum Number of Warmup Days, Force Suppress All Begin Environment Resets, Minimum System Timestep, MaxZoneTempDiff, MaxAllowedDelTemp
 Performance Precision Tradeoffs, No, ScriptF, Normal, 4, No, 1, No, 1.0, 0.300, 2.0000E-003
! <Output Reporting Tolerances>, Tolerance for Time Heating Setpoint Not Met, Tolerance for Zone Cooling Setpoint Not Met Time
 Output Reporting Tolerances, 0.200, 0.200, 
! <Site:GroundTemperature:BuildingSurface>,Jan{C},Feb{C},Mar{C},Apr{C},May{C},Jun{C},Jul{C},Aug{C},Sep{C},Oct{C},Nov{C},Dec{C}
 Site:GroundTemperature:BuildingSurface,  13.00,  12.00,  11.00,  10.00,  11.00,  13.00,  15.00,  16.00,  16.00,  15.00,  14.00,  13.00
! <Site:GroundTemperature:FCfactorMethod>,Jan{C},Feb{C},Mar{C},Apr{C},May{C},Jun{C},Jul{C},Aug{C},Sep{C},Oct{C},Nov{C},Dec{C}
 Site:GroundTemperature:FCfactorMethod,  -1.89,  -3.06,  -0.99,   2.23,  10.68,  17.20,  21.60,  22.94,  20.66,  15.60,   8.83,   2.56
! <Site:GroundTemperature:Shallow>,Jan{C},Feb{C},Mar{C},Apr{C},May{C},Jun{C},Jul{C},Aug{C},Sep{C},Oct{C},Nov{C},Dec{C}
 Site:GroundTemperature:Shallow,  11.00,  10.00,   9.00,   8.00,   9.00,  11.00,  13.00,  14.00,  14.00,  13.00,  12.00,  11.00
! <Site:GroundTemperature:Deep>,Jan{C},Feb{C},Mar{C},Apr{C},May{C},Jun{C},Jul{C},Aug{C},Sep{C},Oct{C},Nov{C},Dec{C}
 Site:GroundTemperature:Deep,   9.00,   8.00,   7.00,   6.00,   7.00,   9.00,  11.00,  12.00,  12.00,  11.00,  10.00,   9.00
! <Site:GroundReflectance>,Jan{dimensionless},Feb{dimensionless},Mar{dimensionless},Apr{dimensionless},May{dimensionless},Jun{dimensionless},Jul{dimensionless},Aug{dimensionless},Sep{dimensionless},Oct{dimensionless},Nov{dimensionless},Dec{dimensionless}
 Site:GroundReflectance,  0.20,  0.20,  0.20,  0.20,  0.20,  0.20,  0.20,  0.20,  0.20,  0.20,  0.20,  0.20
! <Site:GroundReflectance:SnowModifier>, Normal, Daylighting {dimensionless}
 Site:GroundReflectance:SnowModifier,   1.000,   1.000
! <Site:GroundReflectance:Snow>,Jan{dimensionless},Feb{dimensionless},Mar{dimensionless},Apr{dimensionless},May{dimensionless},Jun{dimensionless},Jul{dimensionless},Aug{dimensionless},Sep{dimensionless},Oct{dimensionless},Nov{dimensionless},Dec{dimensionless}
 Site:GroundReflectance:Snow,  0.20,  0.20,  0.20,  0.20,  0.20,  0.20,  0.20,  0.20,  0.20,  0.20,  0.20,  0.20
! <Site:GroundReflectance:Snow:Daylighting>,Jan{dimensionless},Feb{dimensionless},Mar{dimensionless},Apr{dimensionless},May{dimensionless},Jun{dimensionless},Jul{dimensionless},Aug{dimensionless},Sep{dimensionless},Oct{dimensionless},Nov{dimensionless},Dec{dimensionless}
 Site:GroundReflectance:Snow:Daylighting,  0.20,  0.20,  0.20,  0.20,  0.20,  0.20,  0.20,  0.20,  0.20,  0.20,  0.20,  0.20
! <Environment:Weather Station>,Wind Sensor Height Above Ground {m},Wind Speed Profile Exponent {},Wind Speed Profile Boundary Layer Thickness {m},Air Temperature Sensor Height Above Ground {m},Wind Speed Modifier Coefficient-Internal,Temperature Modifier Coefficient-Internal
Environment:Weather Station,10.000,0.140,270.000,1.500,1.586,9.750E-003
! <Site:Location>, Location Name, Latitude {N+/S- Deg}, Longitude {E+/W- Deg},  Time Zone Number {GMT+/-}, Elevation {m},  Standard Pressure at Elevation {Pa}, Standard RhoAir at Elevation
Site:Location,Chicago Ohare Intl Ap IL USA TMY3 WMO#=725300,41.98,-87.92,-6.00,201.00,98934,1.1759
! <Site Water Mains Temperature Information>,Calculation Method{},Water Mains Temperature Schedule Name{},Annual Average Outdoor Air Temperature{C},Maximum Difference In Monthly Average Outdoor Air Temperatures{deltaC},Fixed Default Water Mains Temperature{C}
Site Water Mains Temperature Information,FixedDefault,NA,NA,NA,10.0
! <Building Information>, Building Name,North Axis {deg},Terrain,  Loads Convergence Tolerance Value,Temperature Convergence Tolerance Value,  Solar Distribution,Maximum Number of Warmup Days,Minimum Number of Warmup Days
 Building Information,Professional Building,0.000,Suburbs,4.00000E-002,0.20000,FullInteriorAndExterior,15,6
! <Inside Convection Algorithm>, Algorithm {Simple | TARP | CeilingDiffuser | AdaptiveConvectionAlgorithm}
Inside Convection Algorithm,TARP
! <Outside Convection Algorithm>, Algorithm {SimpleCombined | TARP | MoWitt | DOE-2 | AdaptiveConvectionAlgorithm}
Outside Convection Algorithm,DOE-2
! <Sky Radiance Distribution>, Value {Anisotropic}
Sky Radiance Distribution,Anisotropic
! <Zone Air Solution Algorithm>, Algorithm {ThirdOrderBackwardDifference | AnalyticalSolution | EulerMethod}, Space Heat Balance Sizing, Space Heat Balance Simulation
 Zone Air Solution Algorithm, ThirdOrderBackwardDifference, No, No
! <Zone Air Carbon Dioxide Balance Simulation>, Simulation {Yes/No}, Carbon Dioxide Concentration
 Zone Air Carbon Dioxide Balance Simulation, No,N/A
! <Zone Air Generic Contaminant Balance Simulation>, Simulation {Yes/No}, Generic Contaminant Concentration
 Zone Air Generic Contaminant Balance Simulation, No,N/A
! <Zone Air Mass Flow Balance Simulation>, Enforce Mass Balance, Adjust Zone Mixing and Return {AdjustMixingOnly | AdjustReturnOnly | AdjustMixingThenReturn | AdjustReturnThenMixing | None}, Adjust Zone Infiltration {AddInfiltration | AdjustInfiltration | None}, Infiltration Zones {MixingSourceZonesOnly | AllZones}
 Zone Air Mass Flow Balance Simulation, No,N/A,N/A,N/A
! <HVACSystemRootFindingAlgorithm>, Value {RegulaFalsi | Bisection | BisectionThenRegulaFalsi | RegulaFalsiThenBisection}
 HVACSystemRootFindingAlgorithm, RegulaFalsi
! <Environment:Site Atmospheric Variation>,Wind Speed Profile Exponent {},Wind Speed Profile Boundary Layer Thickness {m},Air Temperature Gradient Coefficient {K/m}
Environment:Site Atmospheric Variation,0.220,370.000,6.500000E-003
! <Shadowing/Sun Position Calculations Annual Simulations>, Shading Calculation Method, Shading Calculation Update Frequency Method, Shading Calculation Update Frequency {days}, Maximum Figures in Shadow Overlap Calculations {}, Polygon Clipping Algorithm, Pixel Counting Resolution, Sky Diffuse Modeling Algorithm, Output External Shading Calculation Results, Disable Self-Shading Within Shading Zone Groups, Disable Self-Shading From Shading Zone Groups to Other Zones
Shadowing/Sun Position Calculations Annual Simulations,PolygonClipping,Periodic,20,15000,SutherlandHodgman,512,SimpleSkyDiffuseModeling,No,No,No
! <Surface Geometry>,Starting Corner,Vertex Input Direction,Coordinate System,Daylight Reference Point Coordinate System,Rectangular (Simple) Surface Coordinate System
 Surface Geometry,UpperLeftCorner,Counterclockwise,RelativeCoordinateSystem,RelativeCoordinateSystem,RelativeToZoneOrigin
! <Surface Heat Transfer Algorithm>, Value {CTF - ConductionTransferFunction | EMPD - MoisturePenetrationDepthConductionTransferFunction | CondFD - ConductionFiniteDifference | HAMT - CombinedHeatAndMoistureFiniteElement} - Description,Inside Surface Max Temperature Limit{C}, Surface Convection Coefficient Lower Limit {W/m2-K}, Surface Convection Coefficient Upper Limit {W/m2-K}
Surface Heat Transfer Algorithm, CTF - ConductionTransferFunction,200,0.10,1000.0
! <Shading Summary>, Number of Fixed Detached Shades, Number of Building Detached Shades, Number of Attached Shades
 Shading Summary,0,0,0
! <Zone Summary>, Number of Zones, Number of Zone Surfaces, Number of SubSurfaces
 Zone Summary,260,2860,1040
! <Zone Information>,Zone Name,North Axis {deg},Origin X-Coordinate {m},Origin Y-Coordinate {m},Origin Z-Coordinate {m},Centroid X-Coordinate {m},Centroid Y-Coordinate {m},Centroid Z-Coordinate {m},Type,Zone Multiplier,Zone List Multiplier,Minimum X {m},Maximum X {m},Minimum Y {m},Maximum Y {m},Minimum Z {m},Maximum Z {m},Ceiling Height {m},Volume {m3},Zone Inside Convection Algorithm {Simple-Detailed-CeilingDiffuser-TrombeWall},Zone Outside Convection Algorithm {Simple-Detailed-Tarp-MoWitt-DOE-2-BLAST}, Floor Area {m2},Exterior Gross Wall Area {m2},Exterior Net Wall Area {m2},Exterior Window Area {m2}, Number of Surfaces, Number of SubSurfaces, Number of Shading SubSurfaces,  Part of Total Building Area
 Zone Information, CONFERENCE_0,0.0,0.00,0.00,0.00,-41.58,-4.54,1.50,1,1,1,-44.36,-38.81,-7.62,-1.47,0.00,3.00,3.00,98.88,TARP,DOE-2,32.96,68.99,48.22,20.76,6,4,0,Yes
 Zone Information, BREAK_ROOM_0,0.0,0.00,0.00,0.00,-34.06,-28.23,1.50,1,1,1,-36.20,-31.91,-32.35,-24.11,0.00,3.00,3.00,102.13,TARP,DOE-2,34.04,73.92,51.68,22.25,6,4,0,Yes
 Zone Information, MECHANICAL_0,0.0,0.00,0.00,0.00,-60.35,-13.47,1.50,1,1,1,-64.40,-56.30,-17.67,-9.27,0.00,3.00,3.00,199.25,TARP,DOE-2,66.42,97.81,68.37,29.44,6,4,0,Yes
 Zone Information, OFFICE_OPEN_0,0.0,0.00,0.00,0.00,-45.89,-25.61,1.50,1,1,1,-55.04,-36.75,-35.13,-16.09,0.00,3.00,3.00,1034.07,TARP,DOE-2,344.69,222.84,155.77,67.07,6,4,0,Yes
 Zone Information, OFFICE_PRIVATE_0,0.0,0.00,0.00,0.00,-96.32,-65.73,1.50,1,1,1,-98.61,-94.04,-69.56,-61.89,0.00,3.00,3.00,101.49,TARP,DOE-2,33.83,72.24,50.50,21.74,6,4,0,Yes
 Zone Information, STORAGE_0,0.0,0.00,0.00,0.00,-39.70,-21.46,1.50,1,1,1,-41.42,-37.98,-23.67,-19.25,0.00,3.00,3.00,43.21,TARP,DOE-2,14.40,45.92,32.10,13.82,6,4,0,Yes
 Zone Information, LOBBY_1,0.0,0.00,0.00,0.00,-76.26,-26.19,4.50,1,1,1,-81.37,-71.14,-35.84,-16.54,3.00,6.00,3.00,583.25,TARP,DOE-2,194.42,175.93,122.98,52.95,6,4,0,Yes
 Zone Information, CONFERENCE_1,0.0,0.00,0.00,0.00,-90.93,-66.06,4.50,1,1,1,-94.60,-87.27,-71.05,-61.08,3.00,6.00,3.00,214.29,TARP,DOE-2,71.43,102.64,71.75,30.89,6,4,0,Yes
 Zone Information, BREAK_ROOM_1,0.0,0.00,0.00,0.00,-90.07,-16.65,4.50,1,1,1,-93.35,-86.79,-21.94,-11.37,3.00,6.00,3.00,202.91,TARP,DOE-2,67.64,101.59,71.02,30.57,6,4,0,Yes
 Zone Information, MECHANICAL_1,0.0,0.00,0.00,0.00,-8.35,-24.70,4.50,1,1,1,-11.09,-5.61,-28.93,-20.47,3.00,6.00,3.00,134.67,TARP,DOE-2,44.89,82.37,57.58,24.79,6,4,0,Yes
 Zone Information, OFFICE_OPEN_1,0.0,0.00,0.00,0.00,-102.08,-47.26,4.50,1,1,1,-107.81,-96.36,-57.56,-36.97,3.00,6.00,3.00,697.66,TARP,DOE-2,232.55,191.04,133.54,57.49,6,4,0,Yes
 Zone Information, OFFICE_PRIVATE_1,0.0,0.00,0.00,0.00,-27.04,-44.61,4.50,1,1,1,-29.23,-24.84,-48.22,-41.00,3.00,6.00,3.00,91.65,TARP,DOE-2,30.55,68.46,47.86,20.60,6,4,0,Yes
 Zone Information, STORAGE_1,0.0,0.00,0.00,0.00,-46.20,-23.12,4.50,1,1,1,-48.09,-44.30,-25.99,-20.24,3.00,6.00,3.00,62.64,TARP,DOE-2,20.88,56.08,39.20,16.88,6,4,0,Yes
 Zone Information, LOBBY_2,0.0,0.00,0.00,0.00,-53.37,-23.60,7.50,1,1,1,-58.41,-48.32,-32.60,-14.61,6.00,9.00,3.00,536.53,TARP,DOE-2,178.84,167.33,116.97,50.36,6,4,0,Yes
 Zone Information, CONFERENCE_2,0.0,0.00,0.00,0.00,-13.16,-39.83,7.50,1,1,1,-17.06,-9.27,-44.39,-35.27,6.00,9.00,3.00,208.05,TARP,DOE-2,69.35,100.26,70.08,30.17,6,4,0,Yes
 Zone Information, BREAK_ROOM_2,0.0,0.00,0.00,0.00,-68.60,-13.31,7.50,1,1,1,-70.41,-66.80,-16.62,-9.99,6.00,9.00,3.00,68.72,TARP,DOE-2,22.91,60.22,42.09,18.12,6,4,0,Yes
 Zone Information, OFFICE_OPEN_2,0.0,0.00,0.00,0.00,-82.31,-56.09,7.50,1,1,1,-90.82,-73.80,-69.27,-42.91,6.00,9.00,3.00,1332.26,TARP,DOE-2,444.09,259.01,181.06,77.95,6,4,0,Yes
 Zone Information, OFFICE_PRIVATE_2,0.0,0.00,0.00,0.00,-100.90,-22.28,7.50,1,1,1,-103.32,-98.47,-26.01,-18.54,6.00,9.00,3.00,104.99,TARP,DOE-2,35.00,72.71,50.83,21.88,6,4,0,Yes
 Zone Information, STORAGE_2,0.0,0.00,0.00,0.00,-22.65,-16.80,7.50,1,1,1,-24.68,-20.62,-20.29,-13.31,6.00,9.00,3.00,81.67,TARP,DOE-2,27.22,65.03,45.46,19.57,6,4,0,Yes
 Zone Information, LOBBY_3,0.0,0.00,0.00,0.00,-28.75,-60.39,10.50,1,1,1,-34.08,-23.41,-66.31,-54.46,9.00,12.00,3.00,372.60,TARP,DOE-2,124.20,133.92,93.61,40.30,6,4,0,Yes
 Zone Information, CONFERENCE_3,0.0,0.00,0.00,0.00,-60.83,-64.80,10.50,1,1,1,-64.66,-57.00,-71.11,-58.50,9.00,12.00,3.00,283.81,TARP,DOE-2,94.60,120.43,84.19,36.25,6,4,0,Yes
 Zone Information, BREAK_ROOM_3,0.0,0.00,0.00,0.00,-89.95,-70.02,10.50,1,1,1,-93.70,-86.20,-75.46,-64.58,9.00,12.00,3.00,239.57,TARP,DOE-2,79.86,109.14,76.29,32.85,6,4,0,Yes
 Zone Information, OFFICE_OPEN_3,0.0,0.00,0.00,0.00,-98.63,-26.58,10.50,1,1,1,-104.36,-92.90,-34.81,-18.36,9.00,12.00,3.00,557.78,TARP,DOE-2,185.93,166.35,116.28,50.06,6,4,0,Yes
 Zone Information, OFFICE_PRIVATE_3,0.0,0.00,0.00,0.00,-107.82,-65.52,10.50,1,1,1,-110.56,-105.08,-70.08,-60.97,9.00,12.00,3.00,145.38,TARP,DOE-2,48.46,86.35,60.36,25.99,6,4,0,Yes
 Zone Information, LOBBY_4,0.0,0.00,0.00,0.00,-56.65,-51.72,13.50,1,1,1,-61.14,-52.15,-59.04,-44.40,12.00,15.00,3.00,387.54,TARP,DOE-2,129.18,140.53,98.24,42.29,6,4,0,Yes
 Zone Information, CONFERENCE_4,0.0,0.00,0.00,0.00,-55.97,-16.06,13.50,1,1,1,-59.84,-52.10,-22.46,-9.65,12.00,15.00,3.00,291.26,TARP,DOE-2,97.09,122.10,85.35,36.75,6,4,0,Yes
 Zone Information, BREAK_ROOM_4,0.0,0.00,0.00,0.00,-52.36,-47.07,13.50,1,1,1,-56.10,-48.63,-52.53,-41.61,12.00,15.00,3.00,239.24,TARP,DOE-2,79.75,109.15,76.30,32.85,6,4,0,Yes
 Zone Information, MECHANICAL_4,0.0,0.00,0.00,0.00,-44.16,-57.70,13.50,1,1,1,-47.91,-40.42,-63.99,-51.41,12.00,15.00,3.00,276.96,TARP,DOE-2,92.32,119.27,83.38,35.90,6,4,0,Yes
 Zone Information, OFFICE_OPEN_4,0.0,0.00,0.00,0.00,-63.82,-21.23,13.50,1,1,1,-69.19,-58.44,-30.64,-11.83,12.00,15.00,3.00,597.76,TARP,DOE-2,199.25,176.16,123.14,53.02,6,4,0,Yes
 Zone Information, OFFICE_PRIVATE_4,0.0,0.00,0.00,0.00,-68.67,-22.55,13.50,1,1,1,-71.57,-65.77,-26.43,-18.67,12.00,15.00,3.00,131.10,TARP,DOE-2,43.70,80.20,56.06,24.14,6,4,0,Yes
 Zone Information, STORAGE_4,0.0,0.00,0.00,0.00,-18.20,-38.20,13.50,1,1,1,-21.06,-15.34,-41.88,-34.53,12.00,15.00,3.00,122.19,TARP,DOE-2,40.73,77.21,53.97,23.24,6,4,0,Yes
 Zone Information, LOBBY_5,0.0,0.00,0.00,0.00,-77.24,-47.45,16.50,1,1,1,-82.05,-72.43,-55.01,-39.88,15.00,18.00,3.00,429.26,TARP,DOE-2,143.09,147.28,102.96,44.33,6,4,0,Yes
 Zone Information, CONFERENCE_5,0.0,0.00,0.00,0.00,-78.26,-23.34,16.50,1,1,1,-81.39,-75.13,-29.45,-17.22,15.00,18.00,3.00,224.17,TARP,DOE-2,74.72,109.73,76.71,33.02,6,4,0,Yes
 Zone Information, BREAK_ROOM_5,0.0,0.00,0.00,0.00,-41.70,-71.81,16.50,1,1,1,-44.17,-39.24,-76.66,-66.95,15.00,18.00,3.00,139.31,TARP,DOE-2,46.44,86.66,60.58,26.08,6,4,0,Yes
 Zone Information, MECHANICAL_5,0.0,0.00,0.00,0.00,-15.31,-11.13,16.50,1,1,1,-18.02,-12.59,-14.81,-7.46,15.00,18.00,3.00,116.02,TARP,DOE-2,38.67,75.51,52.78,22.73,6,4,0,Yes
 Zone Information, OFFICE_OPEN_5,0.0,0.00,0.00,0.00,-91.75,-31.00,16.50,1,1,1,-99.83,-83.67,-43.79,-18.20,15.00,18.00,3.00,1228.36,TARP,DOE-2,409.45,249.33,174.29,75.04,6,4,0,Yes
 Zone Information, OFFICE_PRIVATE_5,0.0,0.00,0.00,0.00,-60.06,-16.92,16.50,1,1,1,-61.89,-58.24,-20.43,-13.41,15.00,18.00,3.00,73.88,TARP,DOE-2,24.63,62.88,43.96,18.93,6,4,0,Yes
 Zone Information, STORAGE_5,0.0,0.00,0.00,0.00,-37.03,-22.69,16.50,1,1,1,-39.61,-34.45,-26.84,-18.54,15.00,18.00,3.00,124.55,TARP,DOE-2,41.52,79.60,55.64,23.95,6,4,0,Yes
 Zone Information, CONFERENCE_6,0.0,0.00,0.00,0.00,-55.84,-33.67,19.50,1,1,1,-59.38,-52.29,-38.00,-29.33,18.00,21.00,3.00,179.59,TARP,DOE-2,59.86,93.33,65.24,28.09,6,4,0,Yes
 Zone Information, BREAK_ROOM_6,0.0,0.00,0.00,0.00,-90.68,-54.51,19.50,1,1,1,-92.35,-89.00,-57.70,-51.33,18.00,21.00,3.00,61.06,TARP,DOE-2,20.35,57.08,39.90,17.18,6,4,0,Yes
 Zone Information, OFFICE_OPEN_6,0.0,0.00,0.00,0.00,-30.84,-51.68,19.50,1,1,1,-37.75,-23.93,-60.94,-42.41,18.00,21.00,3.00,758.54,TARP,DOE-2,252.85,192.89,134.84,58.05,6,4,0,Yes
 Zone Information, OFFICE_PRIVATE_6,0.0,0.00,0.00,0.00,-28.55,-32.10,19.50,1,1,1,-30.43,-26.68,-35.40,-28.80,18.00,21.00,3.00,71.08,TARP,DOE-2,23.69,60.86,42.54,18.31,6,4,0,Yes
 Zone Information, STORAGE_6,0.0,0.00,0.00,0.00,-6.94,-58.78,19.50,1,1,1,-10.04,-3.84,-62.63,-54.93,18.00,21.00,3.00,139.04,TARP,DOE-2,46.35,82.19,57.45,24.74,6,4,0,Yes
 Zone Information, LOBBY_7,0.0,0.00,0.00,0.00,-55.73,-6.97,22.50,1,1,1,-60.54,-50.92,-13.37,-0.57,21.00,24.00,3.00,362.58,TARP,DOE-2,120.86,133.30,93.18,40.12,6,4,0,Yes
 Zone Information, CONFERENCE_7,0.0,0.00,0.00,0.00,-94.85,-59.07,22.50,1,1,1,-98.55,-91.16,-64.45,-53.70,21.00,24.00,3.00,232.68,TARP,DOE-2,77.56,107.59,75.21,32.38,6,4,0,Yes
 Zone Information, BREAK_ROOM_7,0.0,0.00,0.00,0.00,-90.34,-29.47,22.50,1,1,1,-92.83,-87.86,-33.01,-25.93,21.00,24.00,3.00,102.06,TARP,DOE-2,34.02,71.13,49.72,21.41,6,4,0,Yes
 Zone Information, MECHANICAL_7,0.0,0.00,0.00,0.00,-20.74,-63.82,22.50,1,1,1,-22.52,-18.96,-66.89,-60.75,21.00,24.00,3.00,62.77,TARP,DOE-2,20.92,57.02,39.86,17.16,6,4,0,Yes
 Zone Information, OFFICE_OPEN_7,0.0,0.00,0.00,0.00,-108.09,-61.94,22.50,1,1,1,-114.50,-101.67,-69.68,-54.19,21.00,24.00,3.00,587.97,TARP,DOE-2,195.99,168.75,117.96,50.79,6,4,0,Yes
 Zone Information, OFFICE_PRIVATE_7,0.0,0.00,0.00,0.00,-65.43,-39.64,22.50,1,1,1,-68.39,-62.47,-43.60,-35.68,21.00,24.00,3.00,136.71,TARP,DOE-2,45.57,81.89,57.24,24.65,6,4,0,Yes
 Zone Information, STORAGE_7,0.0,0.00,0.00,0.00,-21.22,-78.00,22.50,1,1,1,-22.79,-19.64,-81.06,-74.93,21.00,24.00,3.00,55.11,TARP,DOE-2,18.37,54.45,38.06,16.39,6,4,0,Yes
 Zone Information, LOBBY_8,0.0,0.00,0.00,0.00,-59.24,-24.39,25.50,1,1,1,-65.97,-52.51,-31.46,-17.31,24.00,27.00,3.00,563.34,TARP,DOE-2,187.78,164.49,114.98,49.51,6,4,0,Yes
 Zone Information, CONFERENCE_8,0.0,0.00,0.00,0.00,-69.33,-59.33,25.50,1,1,1,-73.16,-65.50,-65.23,-53.44,24.00,27.00,3.00,265.00,TARP,DOE-2,88.33,115.48,80.72,34.75,6,4,0,Yes
 Zone Information, BREAK_ROOM_8,0.0,0.00,0.00,0.00,-9.04,-70.56,25.50,1,1,1,-11.85,-6.23,-75.86,-65.26,24.00,27.00,3.00,173.71,TARP,DOE-2,57.90,96.08,67.16,28.91,6,4,0,Yes
 Zone Information, MECHANICAL_8,0.0,0.00,0.00,0.00,-16.79,-58.39,25.50,1,1,1,-20.24,-13.33,-63.21,-53.57,24.00,27.00,3.00,195.03,TARP,DOE-2,65.01,98.13,68.60,29.53,6,4,0,Yes
 Zone Information, OFFICE_OPEN_8,0.0,0.00,0.00,0.00,-72.87,-31.23,25.50,1,1,1,-79.07,-66.67,-37.83,-24.62,24.00,27.00,3.00,483.95,TARP,DOE-2,161.32,152.49,106.59,45.89,6,4,0,Yes
 Zone Information, STORAGE_8,0.0,0.00,0.00,0.00,-103.48,-13.78,25.50,1,1,1,-106.41,-100.55,-17.04,-10.53,24.00,27.00,3.00,110.92,TARP,DOE-2,36.97,73.07,51.08,21.99,6,4,0,Yes
 Zone Information, LOBBY_9,0.0,0.00,0.00,0.00,-34.61,-6.62,28.50,1,1,1,-40.23,-29.00,-14.23,0.99,27.00,30.00,3.00,504.67,TARP,DOE-2,168.22,157.47,110.08,47.39,6,4,0,Yes
 Zone Information, CONFERENCE_9,0.0,0.00,0.00,0.00,-75.70,-68.89,28.50,1,1,1,-78.94,-72.45,-74.17,-63.61,27.00,30.00,3.00,200.55,TARP,DOE-2,66.85,101.10,70.67,30.43,6,4,0,Yes
 Zone Information, BREAK_ROOM_9,0.0,0.00,0.00,0.00,-23.60,-19.21,28.50,1,1,1,-26.09,-21.11,-21.84,-16.59,27.00,30.00,3.00,75.55,TARP,DOE-2,25.18,60.24,42.11,18.13,6,4,0,Yes
 Zone Information, MECHANICAL_9,0.0,0.00,0.00,0.00,-42.70,-17.18,28.50,1,1,1,-45.09,-40.31,-21.61,-12.75,27.00,30.00,3.00,123.10,TARP,DOE-2,41.03,80.67,56.39,24.28,6,4,0,Yes
 Zone Information, OFFICE_OPEN_9,0.0,0.00,0.00,0.00,-49.77,-34.29,28.50,1,1,1,-56.14,-43.41,-45.93,-22.65,27.00,30.00,3.00,877.77,TARP,DOE-2,292.59,214.80,150.15,64.65,6,4,0,Yes
 Zone Information, STORAGE_9,0.0,0.00,0.00,0.00,-67.35,-33.11,28.50,1,1,1,-70.19,-64.52,-36.34,-29.88,27.00,30.00,3.00,106.24,TARP,DOE-2,35.41,71.57,50.03,21.54,6,4,0,Yes
 Zone Information, LOBBY_10,0.0,0.00,0.00,0.00,-87.52,-43.65,31.50,1,1,1,-90.78,-84.25,-48.13,-39.18,30.00,33.00,3.00,170.85,TARP,DOE-2,56.95,91.72,64.11,27.60,6,4,0,Yes
 Zone Information, CONFERENCE_10,0.0,0.00,0.00,0.00,-11.01,-64.77,31.50,1,1,1,-15.27,-6.75,-69.20,-60.35,30.00,33.00,3.00,220.98,TARP,DOE-2,73.66,103.01,72.01,31.00,6,4,0,Yes
 Zone Information, BREAK_ROOM_10,0.0,0.00,0.00,0.00,-15.23,-66.48,31.50,1,1,1,-17.92,-12.53,-70.12,-62.83,30.00,33.00,3.00,114.30,TARP,DOE-2,38.10,74.94,52.38,22.55,6,4,0,Yes
 Zone Information, MECHANICAL_10,0.0,0.00,0.00,0.00,-21.18,-72.89,31.50,1,1,1,-24.71,-17.65,-78.16,-67.61,30.00,33.00,3.00,218.25,TARP,DOE-2,72.75,104.48,73.03,31.44,6,4,0,Yes
 Zone Information, OFFICE_OPEN_10,0.0,0.00,0.00,0.00,-32.67,-18.50,31.50,1,1,1,-39.49,-25.85,-29.90,-7.09,30.00,33.00,3.00,922.60,TARP,DOE-2,307.53,217.52,152.06,65.46,6,4,0,Yes
 Zone Information, OFFICE_PRIVATE_10,0.0,0.00,0.00,0.00,-17.80,-13.02,31.50,1,1,1,-20.00,-15.60,-17.27,-8.77,30.00,33.00,3.00,108.26,TARP,DOE-2,36.09,76.16,53.24,22.92,6,4,0,Yes
 Zone Information, STORAGE_10,0.0,0.00,0.00,0.00,-68.64,-72.80,31.50,1,1,1,-70.40,-66.89,-76.08,-69.52,30.00,33.00,3.00,66.15,TARP,DOE-2,22.05,59.25,41.42,17.83,6,4,0,Yes
 Zone Information, LOBBY_11,0.0,0.00,0.00,0.00,-76.49,-55.89,34.50,1,1,1,-81.81,-71.16,-65.13,-46.65,33.00,36.00,3.00,581.78,TARP,DOE-2,193.93,173.58,121.34,52.24,6,4,0,Yes
 Zone Information, CONFERENCE_11,0.0,0.00,0.00,0.00,-15.68,-75.32,34.50,1,1,1,-18.31,-13.06,-80.20,-70.43,33.00,36.00,3.00,149.30,TARP,DOE-2,49.77,88.91,62.15,26.76,6,4,0,Yes
 Zone Information, BREAK_ROOM_11,0.0,0.00,0.00,0.00,-4.13,-47.16,34.50,1,1,1,-6.83,-1.43,-51.60,-42.71,33.00,36.00,3.00,139.61,TARP,DOE-2,46.54,84.50,59.07,25.43,6,4,0,Yes
 Zone Information, MECHANICAL_11,0.0,0.00,0.00,0.00,-54.88,-2.51,34.50,1,1,1,-57.09,-52.68,-5.32,0.29,33.00,36.00,3.00,71.14,TARP,DOE-2,23.71,58.88,41.16,17.72,6,4,0,Yes
 Zone Information, OFFICE_OPEN_11,0.0,0.00,0.00,0.00,-31.02,-59.37,34.50,1,1,1,-37.90,-24.13,-73.01,-45.73,33.00,36.00,3.00,1114.61,TARP,DOE-2,371.54,245.10,171.34,73.76,6,4,0,Yes
 Zone Information, OFFICE_PRIVATE_11,0.0,0.00,0.00,0.00,-42.43,-56.62,34.50,1,1,1,-45.02,-39.85,-61.38,-51.87,33.00,36.00,3.00,143.18,TARP,DOE-2,47.73,86.91,60.75,26.16,6,4,0,Yes
 Zone Information, STORAGE_11,0.0,0.00,0.00,0.00,-103.04,-17.81,34.50,1,1,1,-105.67,-100.41,-22.05,-13.57,33.00,36.00,3.00,129.63,TARP,DOE-2,43.21,81.20,56.76,24.44,6,4,0,Yes
 Zone Information, LOBBY_12,0.0,0.00,0.00,0.00,-62.99,-12.44,37.50,1,1,1,-66.58,-59.41,-19.39,-5.50,36.00,39.00,3.00,292.29,TARP,DOE-2,97.43,125.14,87.48,37.66,6,4,0,Yes
 Zone Information, CONFERENCE_12,0.0,0.00,0.00,0.00,-79.00,-6.64,37.50,1,1,1,-82.84,-75.17,-12.80,-0.49,36.00,39.00,3.00,277.40,TARP,DOE-2,92.47,118.70,82.98,35.72,6,4,0,Yes
 Zone Information, BREAK_ROOM_12,0.0,0.00,0.00,0.00,-54.11,-34.69,37.50,1,1,1,-55.94,-52.29,-37.94,-31.44,36.00,39.00,3.00,68.22,TARP,DOE-2,22.74,59.72,41.75,17.97,6,4,0,Yes
 Zone Information, OFFICE_OPEN_12,0.0,0.00,0.00,0.00,-54.60,-48.23,37.50,1,1,1,-61.86,-47.34,-58.28,-38.18,36.00,39.00,3.00,865.06,TARP,DOE-2,288.35,206.50,144.35,62.15,6,4,0,Yes
 Zone Information, OFFICE_PRIVATE_12,0.0,0.00,0.00,0.00,-13.70,-21.06,37.50,1,1,1,-16.76,-10.64,-24.35,-17.77,36.00,39.00,3.00,117.14,TARP,DOE-2,39.05,75.03,52.45,22.58,6,4,0,Yes
 Zone Information, STORAGE_12,0.0,0.00,0.00,0.00,-18.58,-55.73,37.50,1,1,1,-20.50,-16.66,-59.37,-52.09,36.00,39.00,3.00,80.56,TARP,DOE-2,26.85,65.52,45.80,19.72,6,4,0,Yes
 Zone Information, LOBBY_13,0.0,0.00,0.00,0.00,-27.13,-38.33,40.50,1,1,1,-32.25,-22.02,-47.35,-29.31,39.00,42.00,3.00,545.24,TARP,DOE-2,181.75,168.44,117.75,50.69,6,4,0,Yes
 Zone Information, CONFERENCE_13,0.0,0.00,0.00,0.00,-30.09,-59.53,40.50,1,1,1,-33.12,-27.07,-62.59,-56.47,39.00,42.00,3.00,107.36,TARP,DOE-2,35.79,71.79,50.18,21.61,6,4,0,Yes
 Zone Information, BREAK_ROOM_13,0.0,0.00,0.00,0.00,-15.97,-50.57,40.50,1,1,1,-19.77,-12.18,-54.95,-46.19,39.00,42.00,3.00,194.49,TARP,DOE-2,64.83,96.87,67.72,29.16,6,4,0,Yes
 Zone Information, MECHANICAL_13,0.0,0.00,0.00,0.00,-14.81,-14.83,40.50,1,1,1,-17.43,-12.19,-18.04,-11.63,39.00,42.00,3.00,97.43,TARP,DOE-2,32.48,68.75,48.06,20.69,6,4,0,Yes
 Zone Information, OFFICE_OPEN_13,0.0,0.00,0.00,0.00,-10.46,-17.08,40.50,1,1,1,-18.39,-2.54,-30.95,-3.20,39.00,42.00,3.00,1306.54,TARP,DOE-2,435.51,260.39,182.02,78.37,6,4,0,Yes
 Zone Information, OFFICE_PRIVATE_13,0.0,0.00,0.00,0.00,-89.00,-18.78,40.50,1,1,1,-91.31,-86.70,-23.33,-14.23,39.00,42.00,3.00,121.91,TARP,DOE-2,40.64,81.10,56.69,24.41,6,4,0,Yes
 Zone Information, LOBBY_14,0.0,0.00,0.00,0.00,-63.74,-50.85,43.50,1,1,1,-67.54,-59.93,-57.52,-44.17,42.00,45.00,3.00,298.80,TARP,DOE-2,99.60,124.60,87.10,37.50,6,4,0,Yes
 Zone Information, CONFERENCE_14,0.0,0.00,0.00,0.00,-91.69,-57.22,43.50,1,1,1,-95.32,-88.06,-62.90,-51.53,42.00,45.00,3.00,241.96,TARP,DOE-2,80.65,110.56,77.28,33.27,6,4,0,Yes
 Zone Information, BREAK_ROOM_14,0.0,0.00,0.00,0.00,-42.59,-24.59,43.50,1,1,1,-44.59,-40.58,-28.55,-20.63,42.00,45.00,3.00,91.74,TARP,DOE-2,30.58,70.37,49.19,21.18,6,4,0,Yes
 Zone Information, MECHANICAL_14,0.0,0.00,0.00,0.00,-101.11,-20.89,43.50,1,1,1,-103.06,-99.16,-24.47,-17.32,42.00,45.00,3.00,80.37,TARP,DOE-2,26.79,65.09,45.50,19.59,6,4,0,Yes
 Zone Information, OFFICE_PRIVATE_14,0.0,0.00,0.00,0.00,-75.90,-6.25,43.50,1,1,1,-77.77,-74.02,-9.26,-3.24,42.00,45.00,3.00,64.72,TARP,DOE-2,21.57,57.38,40.11,17.27,6,4,0,Yes
 Zone Information, STORAGE_14,0.0,0.00,0.00,0.00,-75.45,-19.84,43.50,1,1,1,-78.46,-72.45,-23.00,-16.69,42.00,45.00,3.00,110.08,TARP,DOE-2,36.69,72.71,50.83,21.88,6,4,0,Yes
 Zone Information, LOBBY_15,0.0,0.00,0.00,0.00,-34.66,-25.29,46.50,1,1,1,-40.55,-28.77,-33.53,-17.04,45.00,48.00,3.00,574.20,TARP,DOE-2,191.40,168.40,117.72,50.68,6,4,0,Yes
 Zone Information, CONFERENCE_15,0.0,0.00,0.00,0.00,-51.06,-50.89,46.50,1,1,1,-54.32,-47.80,-54.24,-47.54,45.00,48.00,3.00,127.08,TARP,DOE-2,42.36,78.11,54.60,23.51,6,4,0,Yes
 Zone Information, BREAK_ROOM_15,0.0,0.00,0.00,0.00,-19.77,-35.86,46.50,1,1,1,-22.20,-17.33,-39.74,-31.99,45.00,48.00,3.00,109.48,TARP,DOE-2,36.49,74.50,52.08,22.42,6,4,0,Yes
 Zone Information, MECHANICAL_15,0.0,0.00,0.00,0.00,-47.21,-61.52,46.50,1,1,1,-50.53,-43.88,-66.40,-56.64,45.00,48.00,3.00,189.93,TARP,DOE-2,63.31,97.29,68.01,29.28,6,4,0,Yes
 Zone Information, OFFICE_OPEN_15,0.0,0.00,0.00,0.00,-98.69,-48.60,46.50,1,1,1,-106.63,-90.75,-61.73,-35.47,45.00,48.00,3.00,1238.15,TARP,DOE-2,412.72,251.61,175.89,75.73,6,4,0,Yes
 Zone Information, OFFICE_PRIVATE_15,0.0,0.00,0.00,0.00,-16.54,-43.21,46.50,1,1,1,-19.05,-14.04,-46.44,-39.97,45.00,48.00,3.00,93.68,TARP,DOE-2,31.23,67.62,47.27,20.35,6,4,0,Yes
 Zone Information, STORAGE_15,0.0,0.00,0.00,0.00,-30.94,-48.10,46.50,1,1,1,-34.44,-27.44,-51.61,-44.58,45.00,48.00,3.00,143.43,TARP,DOE-2,47.81,82.97,58.00,24.97,6,4,0,Yes
 Zone Information, LOBBY_16,0.0,0.00,0.00,0.00,-97.94,-17.77,49.50,1,1,1,-101.50,-94.37,-21.43,-14.11,48.00,51.00,3.00,152.20,TARP,DOE-2,50.73,85.48,59.75,25.73,6,4,0,Yes
 Zone Information, CONFERENCE_16,0.0,0.00,0.00,0.00,-6.95,-70.50,49.50,1,1,1,-11.25,-2.64,-76.05,-64.95,48.00,51.00,3.00,280.93,TARP,DOE-2,93.64,117.08,81.84,35.24,6,4,0,Yes
 Zone Information, BREAK_ROOM_16,0.0,0.00,0.00,0.00,-71.33,-41.41,49.50,1,1,1,-73.61,-69.05,-45.41,-37.42,48.00,51.00,3.00,105.54,TARP,DOE-2,35.18,74.10,51.80,22.30,6,4,0,Yes
 Zone Information, MECHANICAL_16,0.0,0.00,0.00,0.00,-103.04,-46.71,49.50,1,1,1,-106.14,-99.94,-50.52,-42.89,48.00,51.00,3.00,137.90,TARP,DOE-2,45.97,81.82,57.19,24.62,6,4,0,Yes
 Zone Information, OFFICE_OPEN_16,0.0,0.00,0.00,0.00,-98.23,-49.86,49.50,1,1,1,-105.68,-90.78,-58.73,-41.00,48.00,51.00,3.00,782.64,TARP,DOE-2,260.88,194.56,136.01,58.56,6,4,0,Yes
 Zone Information, OFFICE_PRIVATE_16,0.0,0.00,0.00,0.00,-12.69,-64.76,49.50,1,1,1,-14.33,-11.05,-67.75,-61.76,48.00,51.00,3.00,56.21,TARP,DOE-2,18.74,54.42,38.04,16.38,6,4,0,Yes
 Zone Information, STORAGE_16,0.0,0.00,0.00,0.00,-103.63,-58.85,49.50,1,1,1,-106.14,-101.12,-63.73,-53.97,48.00,51.00,3.00,142.58,TARP,DOE-2,47.53,87.45,61.13,26.32,6,4,0,Yes
 Zone Information, LOBBY_17,0.0,0.00,0.00,0.00,-79.79,-21.24,52.50,1,1,1,-83.37,-76.20,-28.33,-14.15,51.00,54.00,3.00,298.50,TARP,DOE-2,99.50,126.88,88.69,38.18,6,4,0,Yes
 Zone Information, CONFERENCE_17,0.0,0.00,0.00,0.00,-37.37,-41.08,52.50,1,1,1,-40.45,-34.28,-47.17,-34.99,51.00,54.00,3.00,220.02,TARP,DOE-2,73.34,108.90,76.13,32.78,6,4,0,Yes
 Zone Information, BREAK_ROOM_17,0.0,0.00,0.00,0.00,-88.89,-48.60,52.50,1,1,1,-91.48,-86.30,-52.58,-44.61,51.00,54.00,3.00,119.99,TARP,DOE-2,40.00,77.72,54.33,23.39,6,4,0,Yes
 Zone Information, OFFICE_OPEN_17,0.0,0.00,0.00,0.00,-15.28,-63.62,52.50,1,1,1,-22.49,-8.08,-77.32,-49.93,51.00,54.00,3.00,1171.03,TARP,DOE-2,390.34,249.56,174.45,75.11,6,4,0,Yes
 Zone Information, OFFICE_PRIVATE_17,0.0,0.00,0.00,0.00,-51.59,-47.80,52.50,1,1,1,-54.28,-48.90,-52.30,-43.30,51.00,54.00,3.00,141.03,TARP,DOE-2,47.01,85.10,59.49,25.61,6,4,0,Yes
 Zone Information, STORAGE_17,0.0,0.00,0.00,0.00,-30.64,-72.94,52.50,1,1,1,-32.48,-28.80,-76.54,-69.34,51.00,54.00,3.00,76.32,TARP,DOE-2,25.44,64.12,44.82,19.30,6,4,0,Yes
 Zone Information, LOBBY_18,0.0,0.00,0.00,0.00,-28.36,-58.09,55.50,1,1,1,-32.39,-24.33,-65.18,-51.01,54.00,57.00,3.00,335.82,TARP,DOE-2,111.94,132.15,92.38,39.77,6,4,0,Yes
 Zone Information, CONFERENCE_18,0.0,0.00,0.00,0.00,-40.88,-37.09,55.50,1,1,1,-45.10,-36.66,-42.06,-32.12,54.00,57.00,3.00,246.39,TARP,DOE-2,82.13,109.13,76.28,32.84,6,4,0,Yes
 Zone Information, BREAK_ROOM_18,0.0,0.00,0.00,0.00,-13.67,-56.00,55.50,1,1,1,-16.05,-11.30,-60.65,-51.35,54.00,57.00,3.00,128.57,TARP,DOE-2,42.86,83.15,58.13,25.03,6,4,0,Yes
 Zone Information, MECHANICAL_18,0.0,0.00,0.00,0.00,-35.38,-36.08,55.50,1,1,1,-39.28,-31.49,-41.98,-30.18,54.00,57.00,3.00,270.04,TARP,DOE-2,90.01,116.36,81.34,35.02,6,4,0,Yes
 Zone Information, OFFICE_OPEN_18,0.0,0.00,0.00,0.00,-39.78,-55.06,55.50,1,1,1,-46.37,-33.19,-62.55,-47.57,54.00,57.00,3.00,583.76,TARP,DOE-2,194.59,167.74,117.26,50.49,6,4,0,Yes
 Zone Information, STORAGE_18,0.0,0.00,0.00,0.00,-87.98,-22.53,55.50,1,1,1,-90.81,-85.16,-26.03,-19.02,54.00,57.00,3.00,115.01,TARP,DOE-2,38.34,74.75,52.25,22.50,6,4,0,Yes
 Zone Information, LOBBY_19,0.0,0.00,0.00,0.00,-46.02,-75.67,58.50,1,1,1,-50.07,-41.98,-80.38,-70.96,57.00,60.00,3.00,223.36,TARP,DOE-2,74.45,103.86,72.60,31.26,6,4,0,Yes
 Zone Information, CONFERENCE_19,0.0,0.00,0.00,0.00,-27.34,-35.74,58.50,1,1,1,-31.66,-23.03,-40.09,-31.39,57.00,60.00,3.00,220.14,TARP,DOE-2,73.38,102.80,71.86,30.94,6,4,0,Yes
 Zone Information, BREAK_ROOM_19,0.0,0.00,0.00,0.00,-82.84,-41.39,58.50,1,1,1,-85.27,-80.41,-45.77,-37.02,57.00,60.00,3.00,123.60,TARP,DOE-2,41.20,80.47,56.25,24.22,6,4,0,Yes
 Zone Information, MECHANICAL_19,0.0,0.00,0.00,0.00,-19.82,-63.38,58.50,1,1,1,-22.99,-16.66,-69.37,-57.38,57.00,60.00,3.00,221.96,TARP,DOE-2,73.99,108.66,75.96,32.70,6,4,0,Yes
 Zone Information, OFFICE_OPEN_19,0.0,0.00,0.00,0.00,-48.02,-12.17,58.50,1,1,1,-53.19,-42.86,-18.30,-6.04,57.00,60.00,3.00,373.17,TARP,DOE-2,124.39,134.34,93.90,40.43,6,4,0,Yes
 Zone Information, OFFICE_PRIVATE_19,0.0,0.00,0.00,0.00,-54.90,-48.81,58.50,1,1,1,-57.67,-52.14,-52.68,-44.94,57.00,60.00,3.00,124.48,TARP,DOE-2,41.49,78.42,54.82,23.60,6,4,0,Yes
 Zone Information, STORAGE_19,0.0,0.00,0.00,0.00,-98.08,-32.97,58.50,1,1,1,-100.75,-95.41,-36.16,-29.79,57.00,60.00,3.00,98.60,TARP,DOE-2,32.87,69.07,48.28,20.79,6,4,0,Yes
 Zone Information, LOBBY_20,0.0,0.00,0.00,0.00,-66.47,-35.62,61.50,1,1,1,-71.14,-61.80,-43.53,-27.71,60.00,63.00,3.00,435.80,TARP,DOE-2,145.27,149.76,104.69,45.07,6,4,0,Yes
 Zone Information, CONFERENCE_20,0.0,0.00,0.00,0.00,-70.31,-59.38,61.50,1,1,1,-72.83,-67.78,-63.75,-55.01,60.00,63.00,3.00,128.38,TARP,DOE-2,42.79,81.55,57.01,24.54,6,4,0,Yes
 Zone Information, BREAK_ROOM_20,0.0,0.00,0.00,0.00,-99.88,-27.54,61.50,1,1,1,-102.26,-97.49,-32.16,-22.93,60.00,63.00,3.00,127.84,TARP,DOE-2,42.61,82.79,57.87,24.91,6,4,0,Yes
 Zone Information, MECHANICAL_20,0.0,0.00,0.00,0.00,-43.08,-42.27,61.50,1,1,1,-44.75,-41.41,-45.43,-39.11,60.00,63.00,3.00,60.45,TARP,DOE-2,20.15,56.76,39.68,17.08,6,4,0,Yes
 Zone Information, OFFICE_OPEN_20,0.0,0.00,0.00,0.00,-77.67,-50.53,61.50,1,1,1,-85.17,-70.18,-64.26,-36.80,60.00,63.00,3.00,1222.75,TARP,DOE-2,407.58,253.56,177.25,76.31,6,4,0,Yes
 Zone Information, OFFICE_PRIVATE_20,0.0,0.00,0.00,0.00,-94.29,-68.16,61.50,1,1,1,-97.47,-91.12,-71.74,-64.59,60.00,63.00,3.00,132.08,TARP,DOE-2,44.03,79.77,55.76,24.01,6,4,0,Yes
 Zone Information, STORAGE_20,0.0,0.00,0.00,0.00,-99.35,-48.01,61.50,1,1,1,-101.68,-97.03,-51.46,-44.55,60.00,63.00,3.00,92.87,TARP,DOE-2,30.96,68.14,47.63,20.51,6,4,0,Yes
 Zone Information, LOBBY_21,0.0,0.00,0.00,0.00,-84.93,-16.61,64.50,1,1,1,-87.83,-82.02,-21.28,-11.94,63.00,66.00,3.00,158.46,TARP,DOE-2,52.82,89.74,62.73,27.01,6,4,0,Yes
 Zone Information, CONFERENCE_21,0.0,0.00,0.00,0.00,-55.34,-11.34,64.50,1,1,1,-59.71,-50.98,-16.10,-6.59,63.00,66.00,3.00,243.86,TARP,DOE-2,81.29,108.29,75.70,32.59,6,4,0,Yes
 Zone Information, MECHANICAL_21,0.0,0.00,0.00,0.00,-85.35,-24.72,64.50,1,1,1,-87.93,-82.76,-29.71,-19.73,63.00,66.00,3.00,150.24,TARP,DOE-2,50.08,89.70,62.71,27.00,6,4,0,Yes
 Zone Information, OFFICE_OPEN_21,0.0,0.00,0.00,0.00,-3.56,-12.70,64.50,1,1,1,-8.65,1.53,-21.17,-4.24,63.00,66.00,3.00,508.79,TARP,DOE-2,169.60,161.44,112.85,48.59,6,4,0,Yes
 Zone Information, STORAGE_21,0.0,0.00,0.00,0.00,-66.14,-72.12,64.50,1,1,1,-68.02,-64.26,-74.13,-70.10,63.00,66.00,3.00,43.09,TARP,DOE-2,14.36,45.51,31.81,13.70,6,4,0,Yes
 Zone Information, LOBBY_22,0.0,0.00,0.00,0.00,-63.84,-54.44,67.50,1,1,1,-68.71,-58.97,-62.04,-46.84,66.00,69.00,3.00,436.85,TARP,DOE-2,145.62,148.47,103.78,44.68,6,4,0,Yes
 Zone Information, CONFERENCE_22,0.0,0.00,0.00,0.00,-69.44,-24.53,67.50,1,1,1,-72.96,-65.92,-30.38,-18.67,66.00,69.00,3.00,241.77,TARP,DOE-2,80.59,111.30,77.81,33.50,6,4,0,Yes
 Zone Information, BREAK_ROOM_22,0.0,0.00,0.00,0.00,-14.71,-9.80,67.50,1,1,1,-17.45,-11.98,-12.67,-6.92,66.00,69.00,3.00,91.03,TARP,DOE-2,30.34,66.12,46.22,19.90,6,4,0,Yes
 Zone Information, MECHANICAL_22,0.0,0.00,0.00,0.00,-21.03,-71.90,67.50,1,1,1,-25.67,-16.40,-77.22,-66.59,66.00,69.00,3.00,289.73,TARP,DOE-2,96.58,118.21,82.63,35.58,6,4,0,Yes
 Zone Information, OFFICE_OPEN_22,0.0,0.00,0.00,0.00,-68.91,-57.62,67.50,1,1,1,-74.30,-63.52,-65.96,-49.29,66.00,69.00,3.00,531.07,TARP,DOE-2,177.02,163.53,114.31,49.21,6,4,0,Yes
 Zone Information, OFFICE_PRIVATE_22,0.0,0.00,0.00,0.00,-81.90,-32.70,67.50,1,1,1,-84.21,-79.60,-37.01,-28.40,66.00,69.00,3.00,114.97,TARP,DOE-2,38.32,78.08,54.58,23.50,6,4,0,Yes
 Zone Information, STORAGE_22,0.0,0.00,0.00,0.00,-108.08,-25.28,67.50,1,1,1,-110.67,-105.49,-29.32,-21.23,66.00,69.00,3.00,121.56,TARP,DOE-2,40.52,78.36,54.77,23.58,6,4,0,Yes
 Zone Information, LOBBY_23,0.0,0.00,0.00,0.00,-59.77,-59.13,70.50,1,1,1,-65.51,-54.02,-67.10,-51.17,69.00,72.00,3.00,541.26,TARP,DOE-2,180.42,163.36,114.20,49.17,6,4,0,Yes
 Zone Information, BREAK_ROOM_23,0.0,0.00,0.00,0.00,-75.29,-70.47,70.50,1,1,1,-77.13,-73.45,-73.89,-67.04,69.00,72.00,3.00,72.43,TARP,DOE-2,24.14,61.94,43.30,18.64,6,4,0,Yes
 Zone Information, MECHANICAL_23,0.0,0.00,0.00,0.00,-94.75,-17.23,70.50,1,1,1,-97.54,-91.95,-20.59,-13.88,69.00,72.00,3.00,108.83,TARP,DOE-2,36.28,72.59,50.74,21.85,6,4,0,Yes
 Zone Information, OFFICE_OPEN_23,0.0,0.00,0.00,0.00,-87.48,-38.91,70.50,1,1,1,-95.17,-79.79,-53.39,-24.43,69.00,72.00,3.00,1322.84,TARP,DOE-2,440.95,264.84,185.13,79.70,6,4,0,Yes
 Zone Information, OFFICE_PRIVATE_23,0.0,0.00,0.00,0.00,-78.68,-25.23,70.50,1,1,1,-81.70,-75.67,-29.31,-21.16,69.00,72.00,3.00,143.40,TARP,DOE-2,47.80,83.93,58.67,25.26,6,4,0,Yes
 Zone Information, STORAGE_23,0.0,0.00,0.00,0.00,-29.93,-9.64,70.50,1,1,1,-32.82,-27.04,-13.47,-5.81,69.00,72.00,3.00,128.90,TARP,DOE-2,42.97,79.46,55.54,23.91,6,4,0,Yes
 Zone Information, LOBBY_24,0.0,0.00,0.00,0.00,-12.81,-55.40,73.50,1,1,1,-15.86,-9.76,-59.92,-50.88,72.00,75.00,3.00,160.74,TARP,DOE-2,53.58,89.60,62.63,26.97,6,4,0,Yes
 Zone Information, CONFERENCE_24,0.0,0.00,0.00,0.00,-17.66,-7.02,73.50,1,1,1,-21.26,-14.06,-13.99,-6.14E-002,72.00,75.00,3.00,294.54,TARP,DOE-2,98.18,125.56,87.77,37.79,6,4,0,Yes
 Zone Information, BREAK_ROOM_24,0.0,0.00,0.00,0.00,-16.79,-75.21,73.50,1,1,1,-19.30,-14.29,-79.92,-70.50,72.00,75.00,3.00,137.23,TARP,DOE-2,45.74,85.37,59.68,25.69,6,4,0,Yes
 Zone Information, MECHANICAL_24,0.0,0.00,0.00,0.00,-71.04,-54.55,73.50,1,1,1,-74.57,-67.52,-59.58,-49.53,72.00,75.00,3.00,207.39,TARP,DOE-2,69.13,101.38,70.87,30.51,6,4,0,Yes
 Zone Information, OFFICE_OPEN_24,0.0,0.00,0.00,0.00,-20.19,-68.82,73.50,1,1,1,-26.78,-13.59,-79.50,-58.14,72.00,75.00,3.00,834.94,TARP,DOE-2,278.31,206.12,144.08,62.03,6,4,0,Yes
 Zone Information, OFFICE_PRIVATE_24,0.0,0.00,0.00,0.00,-23.28,-67.21,73.50,1,1,1,-25.06,-21.51,-70.49,-63.93,72.00,75.00,3.00,66.89,TARP,DOE-2,22.30,59.48,41.58,17.90,6,4,0,Yes
 Zone Information, STORAGE_24,0.0,0.00,0.00,0.00,-101.80,-40.83,73.50,1,1,1,-104.20,-99.40,-45.42,-36.24,72.00,75.00,3.00,128.02,TARP,DOE-2,42.67,82.67,57.79,24.88,6,4,0,Yes
 Zone Information, LOBBY_25,0.0,0.00,0.00,0.00,-3.96,-25.40,76.50,1,1,1,-6.96,-0.97,-31.19,-19.61,75.00,78.00,3.00,202.72,TARP,DOE-2,67.57,104.20,72.84,31.36,6,4,0,Yes
 Zone Information, CONFERENCE_25,0.0,0.00,0.00,0.00,-29.82,-53.70,76.50,1,1,1,-32.26,-27.37,-58.47,-48.94,75.00,78.00,3.00,135.48,TARP,DOE-2,45.16,85.32,59.65,25.68,6,4,0,Yes
 Zone Information, BREAK_ROOM_25,0.0,0.00,0.00,0.00,-1.79,-39.18,76.50,1,1,1,-3.55,-3.27E-002,-42.30,-36.06,75.00,78.00,3.00,62.84,TARP,DOE-2,20.95,57.31,40.06,17.25,6,4,0,Yes
 Zone Information, MECHANICAL_25,0.0,0.00,0.00,0.00,-93.16,-11.20,76.50,1,1,1,-95.70,-90.63,-16.07,-6.33,75.00,78.00,3.00,143.88,TARP,DOE-2,47.96,87.72,61.32,26.40,6,4,0,Yes
 Zone Information, OFFICE_OPEN_25,0.0,0.00,0.00,0.00,-77.19,-64.75,76.50,1,1,1,-86.69,-67.69,-75.02,-54.48,75.00,78.00,3.00,1158.58,TARP,DOE-2,386.19,236.00,164.97,71.03,6,4,0,Yes
 Zone Information, OFFICE_PRIVATE_25,0.0,0.00,0.00,0.00,-10.96,-17.81,76.50,1,1,1,-12.97,-8.95,-20.66,-14.95,75.00,78.00,3.00,65.99,TARP,DOE-2,22.00,57.18,39.97,17.21,6,4,0,Yes
 Zone Information, STORAGE_25,0.0,0.00,0.00,0.00,-71.44,-15.75,76.50,1,1,1,-73.01,-69.86,-18.72,-12.77,75.00,78.00,3.00,53.61,TARP,DOE-2,17.87,53.45,37.36,16.09,6,4,0,Yes
 Zone Information, LOBBY_26,0.0,0.00,0.00,0.00,-103.11,-45.96,79.50,1,1,1,-106.76,-99.47,-49.65,-42.27,78.00,81.00,3.00,157.03,TARP,DOE-2,52.34,86.82,60.69,26.13,6,4,0,Yes
 Zone Information, CONFERENCE_26,0.0,0.00,0.00,0.00,-97.25,-23.19,79.50,1,1,1,-100.22,-94.27,-28.97,-17.41,78.00,81.00,3.00,201.15,TARP,DOE-2,67.05,103.84,72.59,31.25,6,4,0,Yes
 Zone Information, BREAK_ROOM_26,0.0,0.00,0.00,0.00,-109.41,-42.44,79.50,1,1,1,-112.93,-105.88,-47.62,-37.27,78.00,81.00,3.00,213.79,TARP,DOE-2,71.26,103.22,72.16,31.07,6,4,0,Yes
 Zone Information, OFFICE_OPEN_26,0.0,0.00,0.00,0.00,-98.25,-36.04,79.50,1,1,1,-106.49,-90.02,-50.10,-21.98,78.00,81.00,3.00,1375.60,TARP,DOE-2,458.53,266.31,186.16,80.15,6,4,0,Yes
 Zone Information, OFFICE_PRIVATE_26,0.0,0.00,0.00,0.00,-75.49,-43.39,79.50,1,1,1,-77.85,-73.14,-46.54,-40.24,78.00,81.00,3.00,85.78,TARP,DOE-2,28.59,64.88,45.35,19.53,6,4,0,Yes
 Zone Information, STORAGE_26,0.0,0.00,0.00,0.00,-54.70,-46.19,79.50,1,1,1,-57.16,-52.25,-50.92,-41.46,78.00,81.00,3.00,135.17,TARP,DOE-2,45.06,85.04,59.45,25.59,6,4,0,Yes
 Zone Information, LOBBY_27,0.0,0.00,0.00,0.00,-31.14,-35.78,82.50,1,1,1,-34.68,-27.61,-39.98,-31.58,81.00,84.00,3.00,173.56,TARP,DOE-2,57.85,91.63,64.05,27.58,6,4,0,Yes
 Zone Information, CONFERENCE_27,0.0,0.00,0.00,0.00,-90.34,-61.34,82.50,1,1,1,-93.53,-87.16,-64.78,-57.90,81.00,84.00,3.00,127.49,TARP,DOE-2,42.50,78.28,54.72,23.56,6,4,0,Yes
 Zone Information, BREAK_ROOM_27,0.0,0.00,0.00,0.00,-95.06,-31.55,82.50,1,1,1,-98.74,-91.39,-36.54,-26.56,81.00,84.00,3.00,214.83,TARP,DOE-2,71.61,102.75,71.83,30.93,6,4,0,Yes
 Zone Information, MECHANICAL_27,0.0,0.00,0.00,0.00,-83.44,-45.94,82.50,1,1,1,-86.66,-80.22,-51.68,-40.20,81.00,84.00,3.00,216.40,TARP,DOE-2,72.13,106.31,74.31,31.99,6,4,0,Yes
 Zone Information, OFFICE_OPEN_27,0.0,0.00,0.00,0.00,-52.40,-40.28,82.50,1,1,1,-60.84,-43.96,-49.69,-30.87,81.00,84.00,3.00,942.35,TARP,DOE-2,314.12,213.00,148.89,64.11,6,4,0,Yes
 Zone Information, OFFICE_PRIVATE_27,0.0,0.00,0.00,0.00,-20.87,-25.19,82.50,1,1,1,-22.96,-18.79,-28.75,-21.62,81.00,84.00,3.00,85.96,TARP,DOE-2,28.65,66.64,46.58,20.05,6,4,0,Yes
 Zone Information, STORAGE_27,0.0,0.00,0.00,0.00,-79.35,-63.60,82.50,1,1,1,-82.49,-76.21,-66.92,-60.28,81.00,84.00,3.00,121.28,TARP,DOE-2,40.43,76.33,53.35,22.97,6,4,0,Yes
 Zone Information, LOBBY_28,0.0,0.00,0.00,0.00,-89.29,-13.40,85.50,1,1,1,-93.80,-84.78,-19.36,-7.45,84.00,87.00,3.00,316.09,TARP,DOE-2,105.36,124.40,86.96,37.44,6,4,0,Yes
 Zone Information, CONFERENCE_28,0.0,0.00,0.00,0.00,-96.87,-61.68,85.50,1,1,1,-100.11,-93.62,-67.62,-55.74,84.00,87.00,3.00,225.90,TARP,DOE-2,75.30,109.04,76.22,32.82,6,4,0,Yes
 Zone Information, BREAK_ROOM_28,0.0,0.00,0.00,0.00,-73.72,-51.63,85.50,1,1,1,-76.08,-71.36,-55.19,-48.07,84.00,87.00,3.00,97.24,TARP,DOE-2,32.41,69.81,48.80,21.01,6,4,0,Yes
 Zone Information, MECHANICAL_28,0.0,0.00,0.00,0.00,-103.78,-50.15,85.50,1,1,1,-106.18,-101.38,-54.71,-45.59,84.00,87.00,3.00,127.37,TARP,DOE-2,42.46,82.36,57.57,24.79,6,4,0,Yes
 Zone Information, OFFICE_OPEN_28,0.0,0.00,0.00,0.00,-25.30,-65.85,85.50,1,1,1,-31.77,-18.83,-76.60,-55.10,84.00,87.00,3.00,824.48,TARP,DOE-2,274.83,205.46,143.63,61.84,6,4,0,Yes
 Zone Information, STORAGE_28,0.0,0.00,0.00,0.00,-47.54,-26.84,85.50,1,1,1,-50.82,-44.26,-30.34,-23.35,84.00,87.00,3.00,133.56,TARP,DOE-2,44.52,80.11,56.00,24.11,6,4,0,Yes
 Zone Information, CONFERENCE_29,0.0,0.00,0.00,0.00,-68.85,-62.67,88.50,1,1,1,-72.58,-65.11,-68.96,-56.39,87.00,90.00,3.00,275.83,TARP,DOE-2,91.94,119.07,83.23,35.84,6,4,0,Yes
 Zone Information, BREAK_ROOM_29,0.0,0.00,0.00,0.00,-49.41,-60.17,88.50,1,1,1,-51.63,-47.19,-63.94,-56.40,87.00,90.00,3.00,96.94,TARP,DOE-2,32.31,70.70,49.42,21.28,6,4,0,Yes
 Zone Information, OFFICE_OPEN_29,0.0,0.00,0.00,0.00,-58.65,-36.24,88.50,1,1,1,-66.36,-50.94,-45.50,-26.98,87.00,90.00,3.00,846.63,TARP,DOE-2,282.21,202.45,141.52,60.93,6,4,0,Yes
 Zone Information, OFFICE_PRIVATE_29,0.0,0.00,0.00,0.00,-55.92,-5.95,88.50,1,1,1,-57.84,-54.01,-9.48,-2.41,87.00,90.00,3.00,77.94,TARP,DOE-2,25.98,64.17,44.86,19.31,6,4,0,Yes
 Zone Information, STORAGE_29,0.0,0.00,0.00,0.00,-33.20,-27.88,88.50,1,1,1,-35.95,-30.45,-32.34,-23.41,87.00,90.00,3.00,143.18,TARP,DOE-2,47.73,85.43,59.72,25.71,6,4,0,Yes
 Zone Information, LOBBY_30,0.0,0.00,0.00,0.00,-22.69,-25.55,91.50,1,1,1,-26.64,-18.74,-30.30,-20.80,90.00,93.00,3.00,219.90,TARP,DOE-2,73.30,103.19,72.13,31.06,6,4,0,Yes
 Zone Information, CONFERENCE_30,0.0,0.00,0.00,0.00,-5.57,-40.80,91.50,1,1,1,-8.65,-2.48,-46.64,-34.97,90.00,93.00,3.00,210.95,TARP,DOE-2,70.32,105.90,74.03,31.87,6,4,0,Yes
 Zone Information, BREAK_ROOM_30,0.0,0.00,0.00,0.00,-107.34,-5.66,91.50,1,1,1,-110.41,-104.28,-10.40,-0.92,90.00,93.00,3.00,169.81,TARP,DOE-2,56.60,92.50,64.66,27.84,6,4,0,Yes
 Zone Information, MECHANICAL_30,0.0,0.00,0.00,0.00,-56.79,-53.17,91.50,1,1,1,-60.44,-53.13,-59.85,-46.48,90.00,93.00,3.00,287.02,TARP,DOE-2,95.67,122.88,85.90,36.98,6,4,0,Yes
 Zone Information, OFFICE_OPEN_30,0.0,0.00,0.00,0.00,-32.48,-61.74,91.50,1,1,1,-37.99,-26.97,-72.31,-51.18,90.00,93.00,3.00,688.70,TARP,DOE-2,229.57,191.66,133.98,57.68,6,4,0,Yes
 Zone Information, OFFICE_PRIVATE_30,0.0,0.00,0.00,0.00,-74.65,-18.33,91.50,1,1,1,-76.85,-72.44,-21.96,-14.70,90.00,93.00,3.00,92.64,TARP,DOE-2,30.88,68.83,48.12,20.72,6,4,0,Yes
 Zone Information, STORAGE_30,0.0,0.00,0.00,0.00,-96.67,-12.96,91.50,1,1,1,-98.35,-94.99,-14.97,-10.96,90.00,93.00,3.00,38.26,TARP,DOE-2,12.75,43.03,30.08,12.95,6,4,0,Yes
 Zone Information, LOBBY_31,0.0,0.00,0.00,0.00,-71.27,-59.33,94.50,1,1,1,-77.32,-65.22,-66.17,-52.49,93.00,96.00,3.00,489.07,TARP,DOE-2,163.02,153.51,107.31,46.20,6,4,0,Yes
 Zone Information, CONFERENCE_31,0.0,0.00,0.00,0.00,-28.05,-26.95,94.50,1,1,1,-30.83,-25.27,-32.26,-21.64,93.00,96.00,3.00,172.19,TARP,DOE-2,57.40,95.86,67.01,28.85,6,4,0,Yes
 Zone Information, BREAK_ROOM_31,0.0,0.00,0.00,0.00,-48.18,-75.37,94.50,1,1,1,-51.87,-44.50,-80.26,-70.49,93.00,96.00,3.00,210.77,TARP,DOE-2,70.26,101.62,71.03,30.58,6,4,0,Yes
 Zone Information, MECHANICAL_31,0.0,0.00,0.00,0.00,-103.76,-57.56,94.50,1,1,1,-107.82,-99.70,-61.62,-53.49,93.00,96.00,3.00,192.96,TARP,DOE-2,64.32,96.24,67.27,28.97,6,4,0,Yes
 Zone Information, OFFICE_OPEN_31,0.0,0.00,0.00,0.00,-88.65,-47.92,94.50,1,1,1,-97.35,-79.95,-61.65,-34.18,93.00,96.00,3.00,1420.75,TARP,DOE-2,473.58,268.05,187.38,80.67,6,4,0,Yes
 Zone Information, OFFICE_PRIVATE_31,0.0,0.00,0.00,0.00,-96.29,-39.51,94.50,1,1,1,-99.16,-93.42,-43.43,-35.59,93.00,96.00,3.00,130.86,TARP,DOE-2,43.62,80.24,56.09,24.15,6,4,0,Yes
 Zone Information, STORAGE_31,0.0,0.00,0.00,0.00,-50.86,-75.74,94.50,1,1,1,-52.44,-49.27,-78.44,-73.05,93.00,96.00,3.00,48.72,TARP,DOE-2,16.24,50.16,35.07,15.10,6,4,0,Yes
 Zone Information, CONFERENCE_32,0.0,0.00,0.00,0.00,-51.69,-66.86,97.50,1,1,1,-54.32,-49.06,-70.60,-63.12,96.00,99.00,3.00,114.31,TARP,DOE-2,38.10,75.26,52.61,22.65,6,4,0,Yes
 Zone Information, BREAK_ROOM_32,0.0,0.00,0.00,0.00,-76.88,-72.90,97.50,1,1,1,-79.53,-74.24,-77.58,-68.22,96.00,99.00,3.00,144.12,TARP,DOE-2,48.04,86.67,60.59,26.09,6,4,0,Yes
 Zone Information, MECHANICAL_32,0.0,0.00,0.00,0.00,-65.36,-27.29,97.50,1,1,1,-69.31,-61.41,-31.50,-23.09,96.00,99.00,3.00,194.46,TARP,DOE-2,64.82,96.66,67.57,29.09,6,4,0,Yes
 Zone Information, OFFICE_OPEN_32,0.0,0.00,0.00,0.00,-30.28,-45.48,97.50,1,1,1,-40.24,-20.32,-56.95,-34.02,96.00,99.00,3.00,1357.55,TARP,DOE-2,452.52,255.91,178.89,77.02,6,4,0,Yes
 Zone Information, OFFICE_PRIVATE_32,0.0,0.00,0.00,0.00,-76.95,-66.30,97.50,1,1,1,-79.02,-74.87,-69.44,-63.17,96.00,99.00,3.00,74.95,TARP,DOE-2,24.98,61.33,42.87,18.46,6,4,0,Yes
 Zone Information, STORAGE_32,0.0,0.00,0.00,0.00,-85.02,-56.41,97.50,1,1,1,-88.03,-82.01,-60.35,-52.46,96.00,99.00,3.00,138.35,TARP,DOE-2,46.12,82.26,57.50,24.76,6,4,0,Yes
 Zone Information, LOBBY_33,0.0,0.00,0.00,0.00,-98.64,-64.90,100.50,1,1,1,-102.50,-94.79,-71.88,-57.91,99.00,102.00,3.00,316.82,TARP,DOE-2,105.61,128.91,90.11,38.80,6,4,0,Yes
 Zone Information, CONFERENCE_33,0.0,0.00,0.00,0.00,-16.42,-35.33,100.50,1,1,1,-20.51,-12.34,-40.57,-30.10,99.00,102.00,3.00,250.95,TARP,DOE-2,83.65,110.61,77.32,33.29,6,4,0,Yes
 Zone Information, BREAK_ROOM_33,0.0,0.00,0.00,0.00,-32.93,-72.23,100.50,1,1,1,-35.02,-30.85,-75.54,-68.93,99.00,102.00,3.00,79.47,TARP,DOE-2,26.49,63.47,44.37,19.10,6,4,0,Yes
 Zone Information, MECHANICAL_33,0.0,0.00,0.00,0.00,-108.57,-32.07,100.50,1,1,1,-112.37,-104.76,-36.54,-27.60,99.00,102.00,3.00,199.05,TARP,DOE-2,66.35,98.07,68.55,29.52,6,4,0,Yes
 Zone Information, OFFICE_OPEN_33,0.0,0.00,0.00,0.00,-91.30,-53.05,100.50,1,1,1,-95.31,-87.29,-59.63,-46.47,99.00,102.00,3.00,310.35,TARP,DOE-2,103.45,125.88,88.00,37.88,6,4,0,Yes
 Zone Information, OFFICE_PRIVATE_33,0.0,0.00,0.00,0.00,-100.25,-68.61,100.50,1,1,1,-102.55,-97.95,-72.13,-65.08,99.00,102.00,3.00,93.97,TARP,DOE-2,31.32,68.76,48.06,20.69,6,4,0,Yes
 Zone Information, STORAGE_33,0.0,0.00,0.00,0.00,-80.46,-34.04,100.50,1,1,1,-83.06,-77.86,-38.76,-29.32,99.00,102.00,3.00,143.17,TARP,DOE-2,47.72,86.72,60.62,26.10,6,4,0,Yes
 Zone Information, LOBBY_34,0.0,0.00,0.00,0.00,-42.72,-13.22,103.50,1,1,1,-47.58,-37.86,-21.36,-5.07,102.00,105.00,3.00,467.59,TARP,DOE-2,155.86,154.92,108.29,46.62,6,4,0,Yes
 Zone Information, BREAK_ROOM_34,0.0,0.00,0.00,0.00,-32.61,-32.56,103.50,1,1,1,-35.72,-29.49,-38.49,-26.62,102.00,105.00,3.00,216.72,TARP,DOE-2,72.24,107.45,75.11,32.34,6,4,0,Yes
 Zone Information, MECHANICAL_34,0.0,0.00,0.00,0.00,-11.55,-50.27,103.50,1,1,1,-14.29,-8.81,-53.70,-46.84,102.00,105.00,3.00,109.12,TARP,DOE-2,36.37,72.85,50.92,21.92,6,4,0,Yes
 Zone Information, OFFICE_OPEN_34,0.0,0.00,0.00,0.00,-34.63,-21.61,103.50,1,1,1,-40.93,-28.32,-34.04,-9.18,102.00,105.00,3.00,929.32,TARP,DOE-2,309.77,223.63,156.33,67.30,6,4,0,Yes
 Zone Information, OFFICE_PRIVATE_34,0.0,0.00,0.00,0.00,-104.76,-41.47,103.50,1,1,1,-107.22,-102.31,-44.25,-38.70,102.00,105.00,3.00,78.61,TARP,DOE-2,26.20,61.55,43.02,18.52,6,4,0,Yes
 Zone Information, STORAGE_34,0.0,0.00,0.00,0.00,-87.57,-24.39,103.50,1,1,1,-88.83,-86.30,-26.53,-22.26,102.00,105.00,3.00,30.40,TARP,DOE-2,10.13,39.58,27.67,11.91,6,4,0,Yes
 Zone Information, LOBBY_35,0.0,0.00,0.00,0.00,-91.70,-21.29,106.50,1,1,1,-96.24,-87.16,-27.43,-15.16,105.00,108.00,3.00,327.73,TARP,DOE-2,109.24,126.87,88.69,38.18,6,4,0,Yes
 Zone Information, BREAK_ROOM_35,0.0,0.00,0.00,0.00,-41.98,-67.18,106.50,1,1,1,-44.67,-39.30,-70.82,-63.53,105.00,108.00,3.00,113.66,TARP,DOE-2,37.89,74.76,52.26,22.50,6,4,0,Yes
 Zone Information, MECHANICAL_35,0.0,0.00,0.00,0.00,-105.21,-55.87,106.50,1,1,1,-108.05,-102.36,-60.64,-51.10,105.00,108.00,3.00,158.25,TARP,DOE-2,52.75,90.18,63.04,27.14,6,4,0,Yes
 Zone Information, OFFICE_OPEN_35,0.0,0.00,0.00,0.00,-56.60,-57.49,106.50,1,1,1,-62.91,-50.29,-67.54,-47.45,105.00,108.00,3.00,750.52,TARP,DOE-2,250.17,195.02,136.32,58.69,6,4,0,Yes
 Zone Information, OFFICE_PRIVATE_35,0.0,0.00,0.00,0.00,-85.15,-3.20,106.50,1,1,1,-87.61,-82.69,-6.08,-0.32,105.00,108.00,3.00,81.78,TARP,DOE-2,27.26,62.86,43.94,18.92,6,4,0,Yes
 Zone Information, STORAGE_35,0.0,0.00,0.00,0.00,-47.92,-77.04,106.50,1,1,1,-49.91,-45.93,-79.75,-74.33,105.00,108.00,3.00,62.08,TARP,DOE-2,20.69,55.27,38.63,16.63,6,4,0,Yes
 Zone Information, LOBBY_36,0.0,0.00,0.00,0.00,-24.49,-37.11,109.50,1,1,1,-29.73,-19.25,-45.44,-28.78,108.00,111.00,3.00,515.50,TARP,DOE-2,171.83,161.62,112.98,48.64,6,4,0,Yes
 Zone Information, CONFERENCE_36,0.0,0.00,0.00,0.00,-11.42,-30.42,109.50,1,1,1,-14.72,-8.13,-35.82,-25.02,108.00,111.00,3.00,208.02,TARP,DOE-2,69.34,103.06,72.05,31.02,6,4,0,Yes
 Zone Information, BREAK_ROOM_36,0.0,0.00,0.00,0.00,-59.53,-16.26,109.50,1,1,1,-62.40,-56.66,-20.19,-12.33,108.00,111.00,3.00,131.36,TARP,DOE-2,43.79,80.42,56.22,24.20,6,4,0,Yes
 Zone Information, MECHANICAL_36,0.0,0.00,0.00,0.00,-10.42,-17.64,109.50,1,1,1,-14.24,-6.59,-22.53,-12.75,108.00,111.00,3.00,218.94,TARP,DOE-2,72.98,103.31,72.22,31.09,6,4,0,Yes
 Zone Information, OFFICE_OPEN_36,0.0,0.00,0.00,0.00,-63.32,-34.14,109.50,1,1,1,-69.14,-57.49,-40.77,-27.50,108.00,111.00,3.00,456.39,TARP,DOE-2,152.13,148.32,103.68,44.64,6,4,0,Yes
 Zone Information, OFFICE_PRIVATE_36,0.0,0.00,0.00,0.00,-14.07,-38.54,109.50,1,1,1,-16.54,-11.59,-42.97,-34.12,108.00,111.00,3.00,127.35,TARP,DOE-2,42.45,81.61,57.05,24.56,6,4,0,Yes
 Zone Information, STORAGE_36,0.0,0.00,0.00,0.00,-85.16,-39.57,109.50,1,1,1,-86.59,-83.74,-41.48,-37.67,108.00,111.00,3.00,30.53,TARP,DOE-2,10.18,38.72,27.07,11.65,6,4,0,Yes
 Zone Information, LOBBY_37,0.0,0.00,0.00,0.00,-104.69,-9.88,112.50,1,1,1,-108.45,-100.93,-14.65,-5.11,111.00,114.00,3.00,209.93,TARP,DOE-2,69.98,101.11,70.68,30.43,6,4,0,Yes
 Zone Information, CONFERENCE_37,0.0,0.00,0.00,0.00,-95.23,-17.40,112.50,1,1,1,-98.07,-92.40,-22.48,-12.33,111.00,114.00,3.00,167.81,TARP,DOE-2,55.94,93.68,65.49,28.20,6,4,0,Yes
 Zone Information, BREAK_ROOM_37,0.0,0.00,0.00,0.00,-20.29,-39.94,112.50,1,1,1,-23.88,-16.70,-45.47,-34.41,111.00,114.00,3.00,232.59,TARP,DOE-2,77.53,108.20,75.63,32.56,6,4,0,Yes
 Zone Information, MECHANICAL_37,0.0,0.00,0.00,0.00,-55.33,-49.66,112.50,1,1,1,-58.92,-51.73,-56.51,-42.81,111.00,114.00,3.00,289.39,TARP,DOE-2,96.46,124.16,86.80,37.37,6,4,0,Yes
 Zone Information, OFFICE_PRIVATE_37,0.0,0.00,0.00,0.00,-46.45,-17.06,112.50,1,1,1,-48.58,-44.32,-19.23,-14.88,111.00,114.00,3.00,53.04,TARP,DOE-2,17.68,50.46,35.27,15.19,6,4,0,Yes
 Zone Information, STORAGE_37,0.0,0.00,0.00,0.00,-34.28,-12.53,112.50,1,1,1,-36.78,-31.79,-16.78,-8.29,111.00,114.00,3.00,123.26,TARP,DOE-2,41.09,79.72,55.73,23.99,6,4,0,Yes
 Zone Information, LOBBY_38,0.0,0.00,0.00,0.00,-74.66,-49.58,115.50,1,1,1,-78.73,-70.60,-54.11,-45.04,114.00,117.00,3.00,215.97,TARP,DOE-2,71.99,101.97,71.28,30.69,6,4,0,Yes
 Zone Information, CONFERENCE_38,0.0,0.00,0.00,0.00,-26.27,-30.43,115.50,1,1,1,-30.86,-21.68,-35.13,-25.72,114.00,117.00,3.00,253.58,TARP,DOE-2,84.53,110.33,77.13,33.21,6,4,0,Yes
 Zone Information, BREAK_ROOM_38,0.0,0.00,0.00,0.00,-80.22,-37.68,115.50,1,1,1,-83.11,-77.33,-43.26,-32.10,114.00,117.00,3.00,188.52,TARP,DOE-2,62.84,100.44,70.21,30.23,6,4,0,Yes
 Zone Information, MECHANICAL_38,0.0,0.00,0.00,0.00,-37.11,-59.35,115.50,1,1,1,-40.46,-33.76,-63.80,-54.90,114.00,117.00,3.00,174.37,TARP,DOE-2,58.12,92.44,64.62,27.82,6,4,0,Yes
 Zone Information, OFFICE_PRIVATE_38,0.0,0.00,0.00,0.00,-19.36,-57.12,115.50,1,1,1,-21.16,-17.56,-59.65,-54.58,114.00,117.00,3.00,52.27,TARP,DOE-2,17.42,50.86,35.55,15.31,6,4,0,Yes
 Zone Information, LOBBY_39,0.0,0.00,0.00,0.00,-75.91,-32.90,118.50,1,1,1,-80.10,-71.73,-37.92,-27.88,117.00,120.00,3.00,246.38,TARP,DOE-2,82.13,109.21,76.34,32.87,6,4,0,Yes
 Zone Information, CONFERENCE_39,0.0,0.00,0.00,0.00,-38.39,-32.98,118.50,1,1,1,-41.23,-35.54,-37.39,-28.56,117.00,120.00,3.00,146.37,TARP,DOE-2,48.79,85.92,60.06,25.86,6,4,0,Yes
 Zone Information, BREAK_ROOM_39,0.0,0.00,0.00,0.00,-104.93,-5.75,118.50,1,1,1,-108.23,-101.63,-10.17,-1.33,117.00,120.00,3.00,170.57,TARP,DOE-2,56.86,91.47,63.94,27.53,6,4,0,Yes
 Zone Information, MECHANICAL_39,0.0,0.00,0.00,0.00,-7.50,-71.87,118.50,1,1,1,-10.58,-4.42,-76.14,-67.59,117.00,120.00,3.00,153.72,TARP,DOE-2,51.24,87.09,60.88,26.21,6,4,0,Yes
 Zone Information, OFFICE_OPEN_39,0.0,0.00,0.00,0.00,-56.56,-13.48,118.50,1,1,1,-64.88,-48.25,-22.65,-4.32,117.00,120.00,3.00,903.74,TARP,DOE-2,301.25,208.53,145.77,62.76,6,4,0,Yes
 Zone Information, OFFICE_PRIVATE_39,0.0,0.00,0.00,0.00,-104.69,-62.04,118.50,1,1,1,-106.37,-103.01,-64.44,-59.64,117.00,120.00,3.00,45.94,TARP,DOE-2,15.31,47.74,33.37,14.37,6,4,0,Yes
 Zone Information, STORAGE_39,0.0,0.00,0.00,0.00,-34.87,-59.63,118.50,1,1,1,-37.18,-32.56,-63.08,-56.18,117.00,120.00,3.00,92.06,TARP,DOE-2,30.69,67.86,47.44,20.42,6,4,0,Yes
 Zone Information, LOBBY_40,0.0,0.00,0.00,0.00,-79.70,-63.57,121.50,1,1,1,-84.76,-74.65,-70.79,-56.35,120.00,123.00,3.00,430.54,TARP,DOE-2,143.51,146.10,102.13,43.97,6,4,0,Yes
 Zone Information, CONFERENCE_40,0.0,0.00,0.00,0.00,-16.15,-28.19,121.50,1,1,1,-20.19,-12.11,-33.65,-22.73,120.00,123.00,3.00,258.86,TARP,DOE-2,86.29,112.77,78.83,33.94,6,4,0,Yes
 Zone Information, BREAK_ROOM_40,0.0,0.00,0.00,0.00,-12.90,-32.48,121.50,1,1,1,-15.54,-10.26,-35.44,-29.51,120.00,123.00,3.00,90.52,TARP,DOE-2,30.17,66.03,46.16,19.87,6,4,0,Yes
 Zone Information, MECHANICAL_40,0.0,0.00,0.00,0.00,-5.56,-48.16,121.50,1,1,1,-8.27,-2.85,-53.19,-43.12,120.00,123.00,3.00,159.23,TARP,DOE-2,53.08,91.77,64.15,27.62,6,4,0,Yes
 Zone Information, OFFICE_OPEN_40,0.0,0.00,0.00,0.00,-91.44,-23.18,121.50,1,1,1,-101.02,-81.87,-33.27,-13.08,120.00,123.00,3.00,1148.49,TARP,DOE-2,382.83,234.88,164.19,70.69,6,4,0,Yes
 Zone Information, OFFICE_PRIVATE_40,0.0,0.00,0.00,0.00,-46.79,-59.02,121.50,1,1,1,-49.71,-43.87,-62.69,-55.35,120.00,123.00,3.00,124.61,TARP,DOE-2,41.54,77.86,54.43,23.43,6,4,0,Yes
! <Zone Internal Gains Nominal>,Zone Name, Floor Area {m2},# Occupants,Area per Occupant {m2/person},Occupant per Area {person/m2},Interior Lighting {W/m2},Electric Load {W/m2},Gas Load {W/m2},Other Load {W/m2},Hot Water Eq {W/m2},Steam Equipment {W/m2},Sum Loads per Area {W/m2},Outdoor Controlled Baseboard Heat
 Zone Internal Gains Nominal, CONFERENCE_0,32.96,6.0,5.494,0.182,10.800,8.100,0.000,0.000,0.000,0.000,18.900,No
 Zone Internal Gains Nominal, BREAK_ROOM_0,34.04,3.0,11.348,8.812E-002,8.100,15.000,0.000,0.000,0.000,0.000,23.100,No
 Zone Internal Gains Nominal, MECHANICAL_0,66.42,1.0,66.416,1.506E-002,5.400,0.000,0.000,0.000,0.000,0.000,5.400,No
 Zone Internal Gains Nominal, OFFICE_OPEN_0,344.69,17.0,20.276,4.932E-002,10.800,8.100,0.000,0.000,0.000,0.000,18.900,No
 Zone Internal Gains Nominal, OFFICE_PRIVATE_0,33.83,1.0,33.831,2.956E-002,10.800,8.100,0.000,0.000,0.000,0.000,18.900,No
 Zone Internal Gains Nominal, STORAGE_0,14.40,1.0,14.404,6.942E-002,5.400,1.100,0.000,0.000,0.000,0.000,6.500,No
 Zone Internal Gains Nominal, LOBBY_1,194.42,9.0,21.602,4.629E-002,12.900,3.200,0.000,0.000,0.000,0.000,16.100,No
 Zone Internal Gains Nominal, CONFERENCE_1,71.43,14.0,5.102,0.196,10.800,8.100,0.000,0.000,0.000,0.000,18.900,No
 Zone Internal Gains Nominal, BREAK_ROOM_1,67.64,6.0,11.273,8.871E-002,8.100,15.000,0.000,0.000,0.000,0.000,23.100,No
 Zone Internal Gains Nominal, MECHANICAL_1,44.89,1.0,44.891,2.228E-002,5.400,0.000,0.000,0.000,0.000,0.000,5.400,No
 Zone Internal Gains Nominal, OFFICE_OPEN_1,232.55,11.0,21.141,4.730E-002,10.800,8.100,0.000,0.000,0.000,0.000,18.900,No
 Zone Internal Gains Nominal, OFFICE_PRIVATE_1,30.55,1.0,30.550,3.273E-002,10.800,8.100,0.000,0.000,0.000,0.000,18.900,No
 Zone Internal Gains Nominal, STORAGE_1,20.88,1.0,20.879,4.789E-002,5.400,1.100,0.000,0.000,0.000,0.000,6.500,No
 Zone Internal Gains Nominal, LOBBY_2,178.84,8.0,22.355,4.473E-002,12.900,3.200,0.000,0.000,0.000,0.000,16.100,No
 Zone Internal Gains Nominal, CONFERENCE_2,69.35,13.0,5.335,0.187,10.800,8.100,0.000,0.000,0.000,0.000,18.900,No
 Zone Internal Gains Nominal, BREAK_ROOM_2,22.91,2.0,11.453,8.731E-002,8.100,15.000,0.000,0.000,0.000,0.000,23.100,No
 Zone Internal Gains Nominal, OFFICE_OPEN_2,444.09,22.0,20.186,4.954E-002,10.800,8.100,0.000,0.000,0.000,0.000,18.900,No
 Zone Internal Gains Nominal, OFFICE_PRIVATE_2,35.00,1.0,34.997,2.857E-002,10.800,8.100,0.000,0.000,0.000,0.000,18.900,No
 Zone Internal Gains Nominal, STORAGE_2,27.22,1.0,27.225,3.673E-002,5.400,1.100,0.000,0.000,0.000,0.000,6.500,No
 Zone Internal Gains Nominal, LOBBY_3,124.20,6.0,20.700,4.831E-002,12.900,3.200,0.000,0.000,0.000,0.000,16.100,No
 Zone Internal Gains Nominal, CONFERENCE_3,94.60,18.0,5.256,0.190,10.800,8.100,0.000,0.000,0.000,0.000,18.900,No
 Zone Internal Gains Nominal, BREAK_ROOM_3,79.86,7.0,11.408,8.766E-002,8.100,15.000,0.000,0.000,0.000,0.000,23.100,No
 Zone Internal Gains Nominal, OFFICE_OPEN_3,185.93,9.0,20.659,4.841E-002,10.800,8.100,0.000,0.000,0.000,0.000,18.900,No
 Zone Internal Gains Nominal, OFFICE_PRIVATE_3,48.46,2.0,24.230,4.127E-002,10.800,8.100,0.000,0.000,0.000,0.000,18.900,No
 Zone Internal Gains Nominal, LOBBY_4,129.18,6.0,21.530,4.645E-002,12.900,3.200,0.000,0.000,0.000,0.000,16.100,No
 Zone Internal Gains Nominal, CONFERENCE_4,97.09,19.0,5.110,0.196,10.800,8.100,0.000,0.000,0.000,0.000,18.900,No
 Zone Internal Gains Nominal, BREAK_ROOM_4,79.75,7.0,11.393,8.778E-002,8.100,15.000,0.000,0.000,0.000,0.000,23.100,No
 Zone Internal Gains Nominal, MECHANICAL_4,92.32,1.0,92.322,1.083E-002,5.400,0.000,0.000,0.000,0.000,0.000,5.400,No
 Zone Internal Gains Nominal, OFFICE_OPEN_4,199.25,9.0,22.139,4.517E-002,10.800,8.100,0.000,0.000,0.000,0.000,18.900,No
 Zone Internal Gains Nominal, OFFICE_PRIVATE_4,43.70,2.0,21.850,4.577E-002,10.800,8.100,0.000,0.000,0.000,0.000,18.900,No
 Zone Internal Gains Nominal, STORAGE_4,40.73,1.0,40.729,2.455E-002,5.400,1.100,0.000,0.000,0.000,0.000,6.500,No
 Zone Internal Gains Nominal, LOBBY_5,143.09,7.0,20.441,4.892E-002,12.900,3.200,0.000,0.000,0.000,0.000,16.100,No
 Zone Internal Gains Nominal, CONFERENCE_5,74.72,14.0,5.337,0.187,10.800,8.100,0.000,0.000,0.000,0.000,18.900,No
 Zone Internal Gains Nominal, BREAK_ROOM_5,46.44,4.0,11.609,8.614E-002,8.100,15.000,0.000,0.000,0.000,0.000,23.100,No
 Zone Internal Gains Nominal, MECHANICAL_5,38.67,1.0,38.673,2.586E-002,5.400,0.000,0.000,0.000,0.000,0.000,5.400,No
 Zone Internal Gains Nominal, OFFICE_OPEN_5,409.45,20.0,20.473,4.885E-002,10.800,8.100,0.000,0.000,0.000,0.000,18.900,No
 Zone Internal Gains Nominal, OFFICE_PRIVATE_5,24.63,1.0,24.627,4.061E-002,10.800,8.100,0.000,0.000,0.000,0.000,18.900,No
 Zone Internal Gains Nominal, STORAGE_5,41.52,1.0,41.517,2.409E-002,5.400,1.100,0.000,0.000,0.000,0.000,6.500,No
 Zone Internal Gains Nominal, CONFERENCE_6,59.86,11.0,5.442,0.184,10.800,8.100,0.000,0.000,0.000,0.000,18.900,No
 Zone Internal Gains Nominal, BREAK_ROOM_6,20.35,2.0,10.177,9.826E-002,8.100,15.000,0.000,0.000,0.000,0.000,23.100,No
 Zone Internal Gains Nominal, OFFICE_OPEN_6,252.85,12.0,21.071,4.746E-002,10.800,8.100,0.000,0.000,0.000,0.000,18.900,No
 Zone Internal Gains Nominal, OFFICE_PRIVATE_6,23.69,1.0,23.694,4.220E-002,10.800,8.100,0.000,0.000,0.000,0.000,18.900,No
 Zone Internal Gains Nominal, STORAGE_6,46.35,1.0,46.348,2.158E-002,5.400,1.100,0.000,0.000,0.000,0.000,6.500,No
 Zone Internal Gains Nominal, LOBBY_7,120.86,6.0,20.143,4.964E-002,12.900,3.200,0.000,0.000,0.000,0.000,16.100,No
 Zone Internal Gains Nominal, CONFERENCE_7,77.56,15.0,5.171,0.193,10.800,8.100,0.000,0.000,0.000,0.000,18.900,No
 Zone Internal Gains Nominal, BREAK_ROOM_7,34.02,3.0,11.340,8.818E-002,8.100,15.000,0.000,0.000,0.000,0.000,23.100,No
 Zone Internal Gains Nominal, MECHANICAL_7,20.92,1.0,20.924,4.779E-002,5.400,0.000,0.000,0.000,0.000,0.000,5.400,No
 Zone Internal Gains Nominal, OFFICE_OPEN_7,195.99,9.0,21.777,4.592E-002,10.800,8.100,0.000,0.000,0.000,0.000,18.900,No
 Zone Internal Gains Nominal, OFFICE_PRIVATE_7,45.57,2.0,22.785,4.389E-002,10.800,8.100,0.000,0.000,0.000,0.000,18.900,No
 Zone Internal Gains Nominal, STORAGE_7,18.37,1.0,18.370,5.444E-002,5.400,1.100,0.000,0.000,0.000,0.000,6.500,No
 Zone Internal Gains Nominal, LOBBY_8,187.78,9.0,20.864,4.793E-002,12.900,3.200,0.000,0.000,0.000,0.000,16.100,No
 Zone Internal Gains Nominal, CONFERENCE_8,88.33,17.0,5.196,0.192,10.800,8.100,0.000,0.000,0.000,0.000,18.900,No
 Zone Internal Gains Nominal, BREAK_ROOM_8,57.90,5.0,11.581,8.635E-002,8.100,15.000,0.000,0.000,0.000,0.000,23.100,No
 Zone Internal Gains Nominal, MECHANICAL_8,65.01,1.0,65.010,1.538E-002,5.400,0.000,0.000,0.000,0.000,0.000,5.400,No
 Zone Internal Gains Nominal, OFFICE_OPEN_8,161.32,8.0,20.165,4.959E-002,10.800,8.100,0.000,0.000,0.000,0.000,18.900,No
 Zone Internal Gains Nominal, STORAGE_8,36.97,1.0,36.975,2.705E-002,5.400,1.100,0.000,0.000,0.000,0.000,6.500,No
 Zone Internal Gains Nominal, LOBBY_9,168.22,8.0,21.028,4.756E-002,12.900,3.200,0.000,0.000,0.000,0.000,16.100,No
 Zone Internal Gains Nominal, CONFERENCE_9,66.85,13.0,5.142,0.194,10.800,8.100,0.000,0.000,0.000,0.000,18.900,No
 Zone Internal Gains Nominal, BREAK_ROOM_9,25.18,2.0,12.591,7.942E-002,8.100,15.000,0.000,0.000,0.000,0.000,23.100,No
 Zone Internal Gains Nominal, MECHANICAL_9,41.03,1.0,41.033,2.437E-002,5.400,0.000,0.000,0.000,0.000,0.000,5.400,No
 Zone Internal Gains Nominal, OFFICE_OPEN_9,292.59,14.0,20.899,4.785E-002,10.800,8.100,0.000,0.000,0.000,0.000,18.900,No
 Zone Internal Gains Nominal, STORAGE_9,35.41,1.0,35.414,2.824E-002,5.400,1.100,0.000,0.000,0.000,0.000,6.500,No
 Zone Internal Gains Nominal, LOBBY_10,56.95,2.0,28.475,3.512E-002,12.900,3.200,0.000,0.000,0.000,0.000,16.100,No
 Zone Internal Gains Nominal, CONFERENCE_10,73.66,14.0,5.262,0.190,10.800,8.100,0.000,0.000,0.000,0.000,18.900,No
 Zone Internal Gains Nominal, BREAK_ROOM_10,38.10,3.0,12.700,7.874E-002,8.100,15.000,0.000,0.000,0.000,0.000,23.100,No
 Zone Internal Gains Nominal, MECHANICAL_10,72.75,1.0,72.751,1.375E-002,5.400,0.000,0.000,0.000,0.000,0.000,5.400,No
 Zone Internal Gains Nominal, OFFICE_OPEN_10,307.53,15.0,20.502,4.878E-002,10.800,8.100,0.000,0.000,0.000,0.000,18.900,No
 Zone Internal Gains Nominal, OFFICE_PRIVATE_10,36.09,1.0,36.087,2.771E-002,10.800,8.100,0.000,0.000,0.000,0.000,18.900,No
 Zone Internal Gains Nominal, STORAGE_10,22.05,1.0,22.050,4.535E-002,5.400,1.100,0.000,0.000,0.000,0.000,6.500,No
 Zone Internal Gains Nominal, LOBBY_11,193.93,9.0,21.547,4.641E-002,12.900,3.200,0.000,0.000,0.000,0.000,16.100,No
 Zone Internal Gains Nominal, CONFERENCE_11,49.77,9.0,5.530,0.181,10.800,8.100,0.000,0.000,0.000,0.000,18.900,No
 Zone Internal Gains Nominal, BREAK_ROOM_11,46.54,4.0,11.634,8.595E-002,8.100,15.000,0.000,0.000,0.000,0.000,23.100,No
 Zone Internal Gains Nominal, MECHANICAL_11,23.71,1.0,23.714,4.217E-002,5.400,0.000,0.000,0.000,0.000,0.000,5.400,No
 Zone Internal Gains Nominal, OFFICE_OPEN_11,371.54,18.0,20.641,4.845E-002,10.800,8.100,0.000,0.000,0.000,0.000,18.900,No
 Zone Internal Gains Nominal, OFFICE_PRIVATE_11,47.73,2.0,23.864,4.190E-002,10.800,8.100,0.000,0.000,0.000,0.000,18.900,No
 Zone Internal Gains Nominal, STORAGE_11,43.21,1.0,43.210,2.314E-002,5.400,1.100,0.000,0.000,0.000,0.000,6.500,No
 Zone Internal Gains Nominal, LOBBY_12,97.43,4.0,24.358,4.105E-002,12.900,3.200,0.000,0.000,0.000,0.000,16.100,No
 Zone Internal Gains Nominal, CONFERENCE_12,92.47,18.0,5.137,0.195,10.800,8.100,0.000,0.000,0.000,0.000,18.900,No
 Zone Internal Gains Nominal, BREAK_ROOM_12,22.74,2.0,11.369,8.796E-002,8.100,15.000,0.000,0.000,0.000,0.000,23.100,No
 Zone Internal Gains Nominal, OFFICE_OPEN_12,288.35,14.0,20.597,4.855E-002,10.800,8.100,0.000,0.000,0.000,0.000,18.900,No
 Zone Internal Gains Nominal, OFFICE_PRIVATE_12,39.05,1.0,39.047,2.561E-002,10.800,8.100,0.000,0.000,0.000,0.000,18.900,No
 Zone Internal Gains Nominal, STORAGE_12,26.85,1.0,26.854,3.724E-002,5.400,1.100,0.000,0.000,0.000,0.000,6.500,No
 Zone Internal Gains Nominal, LOBBY_13,181.75,9.0,20.194,4.952E-002,12.900,3.200,0.000,0.000,0.000,0.000,16.100,No
 Zone Internal Gains Nominal, CONFERENCE_13,35.79,7.0,5.112,0.196,10.800,8.100,0.000,0.000,0.000,0.000,18.900,No
 Zone Internal Gains Nominal, BREAK_ROOM_13,64.83,6.0,10.805,9.255E-002,8.100,15.000,0.000,0.000,0.000,0.000,23.100,No
 Zone Internal Gains Nominal, MECHANICAL_13,32.48,1.0,32.477,3.079E-002,5.400,0.000,0.000,0.000,0.000,0.000,5.400,No
 Zone Internal Gains Nominal, OFFICE_OPEN_13,435.51,21.0,20.739,4.822E-002,10.800,8.100,0.000,0.000,0.000,0.000,18.900,No
 Zone Internal Gains Nominal, OFFICE_PRIVATE_13,40.64,2.0,20.318,4.922E-002,10.800,8.100,0.000,0.000,0.000,0.000,18.900,No
 Zone Internal Gains Nominal, LOBBY_14,99.60,4.0,24.900,4.016E-002,12.900,3.200,0.000,0.000,0.000,0.000,16.100,No
 Zone Internal Gains Nominal, CONFERENCE_14,80.65,16.0,5.041,0.198,10.800,8.100,0.000,0.000,0.000,0.000,18.900,No
 Zone Internal Gains Nominal, BREAK_ROOM_14,30.58,3.0,10.193,9.811E-002,8.100,15.000,0.000,0.000,0.000,0.000,23.100,No
 Zone Internal Gains Nominal, MECHANICAL_14,26.79,1.0,26.789,3.733E-002,5.400,0.000,0.000,0.000,0.000,0.000,5.400,No
 Zone Internal Gains Nominal, OFFICE_PRIVATE_14,21.57,1.0,21.572,4.636E-002,10.800,8.100,0.000,0.000,0.000,0.000,18.900,No
 Zone Internal Gains Nominal, STORAGE_14,36.69,1.0,36.692,2.725E-002,5.400,1.100,0.000,0.000,0.000,0.000,6.500,No
 Zone Internal Gains Nominal, LOBBY_15,191.40,9.0,21.267,4.702E-002,12.900,3.200,0.000,0.000,0.000,0.000,16.100,No
 Zone Internal Gains Nominal, CONFERENCE_15,42.36,8.0,5.295,0.189,10.800,8.100,0.000,0.000,0.000,0.000,18.900,No
 Zone Internal Gains Nominal, BREAK_ROOM_15,36.49,3.0,12.164,8.221E-002,8.100,15.000,0.000,0.000,0.000,0.000,23.100,No
 Zone Internal Gains Nominal, MECHANICAL_15,63.31,1.0,63.310,1.580E-002,5.400,0.000,0.000,0.000,0.000,0.000,5.400,No
 Zone Internal Gains Nominal, OFFICE_OPEN_15,412.72,20.0,20.636,4.846E-002,10.800,8.100,0.000,0.000,0.000,0.000,18.900,No
 Zone Internal Gains Nominal, OFFICE_PRIVATE_15,31.23,1.0,31.227,3.202E-002,10.800,8.100,0.000,0.000,0.000,0.000,18.900,No
 Zone Internal Gains Nominal, STORAGE_15,47.81,1.0,47.811,2.092E-002,5.400,1.100,0.000,0.000,0.000,0.000,6.500,No
 Zone Internal Gains Nominal, LOBBY_16,50.73,2.0,25.366,3.942E-002,12.900,3.200,0.000,0.000,0.000,0.000,16.100,No
 Zone Internal Gains Nominal, CONFERENCE_16,93.64,18.0,5.202,0.192,10.800,8.100,0.000,0.000,0.000,0.000,18.900,No
 Zone Internal Gains Nominal, BREAK_ROOM_16,35.18,3.0,11.727,8.527E-002,8.100,15.000,0.000,0.000,0.000,0.000,23.100,No
 Zone Internal Gains Nominal, MECHANICAL_16,45.97,1.0,45.966,2.176E-002,5.400,0.000,0.000,0.000,0.000,0.000,5.400,No
 Zone Internal Gains Nominal, OFFICE_OPEN_16,260.88,13.0,20.068,4.983E-002,10.800,8.100,0.000,0.000,0.000,0.000,18.900,No
 Zone Internal Gains Nominal, OFFICE_PRIVATE_16,18.74,1.0,18.737,5.337E-002,10.800,8.100,0.000,0.000,0.000,0.000,18.900,No
 Zone Internal Gains Nominal, STORAGE_16,47.53,1.0,47.526,2.104E-002,5.400,1.100,0.000,0.000,0.000,0.000,6.500,No
 Zone Internal Gains Nominal, LOBBY_17,99.50,4.0,24.875,4.020E-002,12.900,3.200,0.000,0.000,0.000,0.000,16.100,No
 Zone Internal Gains Nominal, CONFERENCE_17,73.34,14.0,5.238,0.191,10.800,8.100,0.000,0.000,0.000,0.000,18.900,No
 Zone Internal Gains Nominal, BREAK_ROOM_17,40.00,3.0,13.333,7.500E-002,8.100,15.000,0.000,0.000,0.000,0.000,23.100,No
 Zone Internal Gains Nominal, OFFICE_OPEN_17,390.34,19.0,20.544,4.868E-002,10.800,8.100,0.000,0.000,0.000,0.000,18.900,No
 Zone Internal Gains Nominal, OFFICE_PRIVATE_17,47.01,2.0,23.505,4.254E-002,10.800,8.100,0.000,0.000,0.000,0.000,18.900,No
 Zone Internal Gains Nominal, STORAGE_17,25.44,1.0,25.440,3.931E-002,5.400,1.100,0.000,0.000,0.000,0.000,6.500,No
 Zone Internal Gains Nominal, LOBBY_18,111.94,5.0,22.388,4.467E-002,12.900,3.200,0.000,0.000,0.000,0.000,16.100,No
 Zone Internal Gains Nominal, CONFERENCE_18,82.13,16.0,5.133,0.195,10.800,8.100,0.000,0.000,0.000,0.000,18.900,No
 Zone Internal Gains Nominal, BREAK_ROOM_18,42.86,4.0,10.714,9.333E-002,8.100,15.000,0.000,0.000,0.000,0.000,23.100,No
 Zone Internal Gains Nominal, MECHANICAL_18,90.01,1.0,90.013,1.111E-002,5.400,0.000,0.000,0.000,0.000,0.000,5.400,No
 Zone Internal Gains Nominal, OFFICE_OPEN_18,194.59,9.0,21.621,4.625E-002,10.800,8.100,0.000,0.000,0.000,0.000,18.900,No
 Zone Internal Gains Nominal, STORAGE_18,38.34,1.0,38.338,2.608E-002,5.400,1.100,0.000,0.000,0.000,0.000,6.500,No
 Zone Internal Gains Nominal, LOBBY_19,74.45,3.0,24.818,4.029E-002,12.900,3.200,0.000,0.000,0.000,0.000,16.100,No
 Zone Internal Gains Nominal, CONFERENCE_19,73.38,14.0,5.242,0.191,10.800,8.100,0.000,0.000,0.000,0.000,18.900,No
 Zone Internal Gains Nominal, BREAK_ROOM_19,41.20,4.0,10.300,9.708E-002,8.100,15.000,0.000,0.000,0.000,0.000,23.100,No
 Zone Internal Gains Nominal, MECHANICAL_19,73.99,1.0,73.986,1.352E-002,5.400,0.000,0.000,0.000,0.000,0.000,5.400,No
 Zone Internal Gains Nominal, OFFICE_OPEN_19,124.39,6.0,20.732,4.824E-002,10.800,8.100,0.000,0.000,0.000,0.000,18.900,No
 Zone Internal Gains Nominal, OFFICE_PRIVATE_19,41.49,2.0,20.747,4.820E-002,10.800,8.100,0.000,0.000,0.000,0.000,18.900,No
 Zone Internal Gains Nominal, STORAGE_19,32.87,1.0,32.865,3.043E-002,5.400,1.100,0.000,0.000,0.000,0.000,6.500,No
 Zone Internal Gains Nominal, LOBBY_20,145.27,7.0,20.752,4.819E-002,12.900,3.200,0.000,0.000,0.000,0.000,16.100,No
 Zone Internal Gains Nominal, CONFERENCE_20,42.79,8.0,5.349,0.187,10.800,8.100,0.000,0.000,0.000,0.000,18.900,No
 Zone Internal Gains Nominal, BREAK_ROOM_20,42.61,4.0,10.653,9.387E-002,8.100,15.000,0.000,0.000,0.000,0.000,23.100,No
 Zone Internal Gains Nominal, MECHANICAL_20,20.15,1.0,20.151,4.963E-002,5.400,0.000,0.000,0.000,0.000,0.000,5.400,No
 Zone Internal Gains Nominal, OFFICE_OPEN_20,407.58,20.0,20.379,4.907E-002,10.800,8.100,0.000,0.000,0.000,0.000,18.900,No
 Zone Internal Gains Nominal, OFFICE_PRIVATE_20,44.03,2.0,22.014,4.543E-002,10.800,8.100,0.000,0.000,0.000,0.000,18.900,No
 Zone Internal Gains Nominal, STORAGE_20,30.96,1.0,30.957,3.230E-002,5.400,1.100,0.000,0.000,0.000,0.000,6.500,No
 Zone Internal Gains Nominal, LOBBY_21,52.82,2.0,26.410,3.786E-002,12.900,3.200,0.000,0.000,0.000,0.000,16.100,No
 Zone Internal Gains Nominal, CONFERENCE_21,81.29,16.0,5.080,0.197,10.800,8.100,0.000,0.000,0.000,0.000,18.900,No
 Zone Internal Gains Nominal, MECHANICAL_21,50.08,1.0,50.079,1.997E-002,5.400,0.000,0.000,0.000,0.000,0.000,5.400,No
 Zone Internal Gains Nominal, OFFICE_OPEN_21,169.60,8.0,21.199,4.717E-002,10.800,8.100,0.000,0.000,0.000,0.000,18.900,No
 Zone Internal Gains Nominal, STORAGE_21,14.36,1.0,14.362,6.963E-002,5.400,1.100,0.000,0.000,0.000,0.000,6.500,No
 Zone Internal Gains Nominal, LOBBY_22,145.62,7.0,20.802,4.807E-002,12.900,3.200,0.000,0.000,0.000,0.000,16.100,No
 Zone Internal Gains Nominal, CONFERENCE_22,80.59,16.0,5.037,0.199,10.800,8.100,0.000,0.000,0.000,0.000,18.900,No
 Zone Internal Gains Nominal, BREAK_ROOM_22,30.34,3.0,10.114,9.887E-002,8.100,15.000,0.000,0.000,0.000,0.000,23.100,No
 Zone Internal Gains Nominal, MECHANICAL_22,96.58,1.0,96.576,1.035E-002,5.400,0.000,0.000,0.000,0.000,0.000,5.400,No
 Zone Internal Gains Nominal, OFFICE_OPEN_22,177.02,8.0,22.128,4.519E-002,10.800,8.100,0.000,0.000,0.000,0.000,18.900,No
 Zone Internal Gains Nominal, OFFICE_PRIVATE_22,38.32,1.0,38.324,2.609E-002,10.800,8.100,0.000,0.000,0.000,0.000,18.900,No
 Zone Internal Gains Nominal, STORAGE_22,40.52,1.0,40.519,2.468E-002,5.400,1.100,0.000,0.000,0.000,0.000,6.500,No
 Zone Internal Gains Nominal, LOBBY_23,180.42,9.0,20.047,4.988E-002,12.900,3.200,0.000,0.000,0.000,0.000,16.100,No
 Zone Internal Gains Nominal, BREAK_ROOM_23,24.14,2.0,12.072,8.283E-002,8.100,15.000,0.000,0.000,0.000,0.000,23.100,No
 Zone Internal Gains Nominal, MECHANICAL_23,36.28,1.0,36.277,2.757E-002,5.400,0.000,0.000,0.000,0.000,0.000,5.400,No
 Zone Internal Gains Nominal, OFFICE_OPEN_23,440.95,22.0,20.043,4.989E-002,10.800,8.100,0.000,0.000,0.000,0.000,18.900,No
 Zone Internal Gains Nominal, OFFICE_PRIVATE_23,47.80,2.0,23.899,4.184E-002,10.800,8.100,0.000,0.000,0.000,0.000,18.900,No
 Zone Internal Gains Nominal, STORAGE_23,42.97,1.0,42.968,2.327E-002,5.400,1.100,0.000,0.000,0.000,0.000,6.500,No
 Zone Internal Gains Nominal, LOBBY_24,53.58,2.0,26.790,3.733E-002,12.900,3.200,0.000,0.000,0.000,0.000,16.100,No
 Zone Internal Gains Nominal, CONFERENCE_24,98.18,19.0,5.167,0.194,10.800,8.100,0.000,0.000,0.000,0.000,18.900,No
 Zone Internal Gains Nominal, BREAK_ROOM_24,45.74,4.0,11.436,8.744E-002,8.100,15.000,0.000,0.000,0.000,0.000,23.100,No
 Zone Internal Gains Nominal, MECHANICAL_24,69.13,1.0,69.129,1.447E-002,5.400,0.000,0.000,0.000,0.000,0.000,5.400,No
 Zone Internal Gains Nominal, OFFICE_OPEN_24,278.31,13.0,21.409,4.671E-002,10.800,8.100,0.000,0.000,0.000,0.000,18.900,No
 Zone Internal Gains Nominal, OFFICE_PRIVATE_24,22.30,1.0,22.297,4.485E-002,10.800,8.100,0.000,0.000,0.000,0.000,18.900,No
 Zone Internal Gains Nominal, STORAGE_24,42.67,1.0,42.675,2.343E-002,5.400,1.100,0.000,0.000,0.000,0.000,6.500,No
 Zone Internal Gains Nominal, LOBBY_25,67.57,3.0,22.525,4.440E-002,12.900,3.200,0.000,0.000,0.000,0.000,16.100,No
 Zone Internal Gains Nominal, CONFERENCE_25,45.16,9.0,5.018,0.199,10.800,8.100,0.000,0.000,0.000,0.000,18.900,No
 Zone Internal Gains Nominal, BREAK_ROOM_25,20.95,2.0,10.474,9.547E-002,8.100,15.000,0.000,0.000,0.000,0.000,23.100,No
 Zone Internal Gains Nominal, MECHANICAL_25,47.96,1.0,47.961,2.085E-002,5.400,0.000,0.000,0.000,0.000,0.000,5.400,No
 Zone Internal Gains Nominal, OFFICE_OPEN_25,386.19,19.0,20.326,4.920E-002,10.800,8.100,0.000,0.000,0.000,0.000,18.900,No
 Zone Internal Gains Nominal, OFFICE_PRIVATE_25,22.00,1.0,21.996,4.546E-002,10.800,8.100,0.000,0.000,0.000,0.000,18.900,No
 Zone Internal Gains Nominal, STORAGE_25,17.87,1.0,17.870,5.596E-002,5.400,1.100,0.000,0.000,0.000,0.000,6.500,No
 Zone Internal Gains Nominal, LOBBY_26,52.34,2.0,26.171,3.821E-002,12.900,3.200,0.000,0.000,0.000,0.000,16.100,No
 Zone Internal Gains Nominal, CONFERENCE_26,67.05,13.0,5.158,0.194,10.800,8.100,0.000,0.000,0.000,0.000,18.900,No
 Zone Internal Gains Nominal, BREAK_ROOM_26,71.26,7.0,10.181,9.823E-002,8.100,15.000,0.000,0.000,0.000,0.000,23.100,No
 Zone Internal Gains Nominal, OFFICE_OPEN_26,458.53,22.0,20.842,4.798E-002,10.800,8.100,0.000,0.000,0.000,0.000,18.900,No
 Zone Internal Gains Nominal, OFFICE_PRIVATE_26,28.59,1.0,28.594,3.497E-002,10.800,8.100,0.000,0.000,0.000,0.000,18.900,No
 Zone Internal Gains Nominal, STORAGE_26,45.06,1.0,45.056,2.219E-002,5.400,1.100,0.000,0.000,0.000,0.000,6.500,No
 Zone Internal Gains Nominal, LOBBY_27,57.85,2.0,28.927,3.457E-002,12.900,3.200,0.000,0.000,0.000,0.000,16.100,No
 Zone Internal Gains Nominal, CONFERENCE_27,42.50,8.0,5.312,0.188,10.800,8.100,0.000,0.000,0.000,0.000,18.900,No
 Zone Internal Gains Nominal, BREAK_ROOM_27,71.61,7.0,10.230,9.775E-002,8.100,15.000,0.000,0.000,0.000,0.000,23.100,No
 Zone Internal Gains Nominal, MECHANICAL_27,72.13,1.0,72.132,1.386E-002,5.400,0.000,0.000,0.000,0.000,0.000,5.400,No
 Zone Internal Gains Nominal, OFFICE_OPEN_27,314.12,15.0,20.941,4.775E-002,10.800,8.100,0.000,0.000,0.000,0.000,18.900,No
 Zone Internal Gains Nominal, OFFICE_PRIVATE_27,28.65,1.0,28.655,3.490E-002,10.800,8.100,0.000,0.000,0.000,0.000,18.900,No
 Zone Internal Gains Nominal, STORAGE_27,40.43,1.0,40.425,2.474E-002,5.400,1.100,0.000,0.000,0.000,0.000,6.500,No
 Zone Internal Gains Nominal, LOBBY_28,105.36,5.0,21.073,4.745E-002,12.900,3.200,0.000,0.000,0.000,0.000,16.100,No
 Zone Internal Gains Nominal, CONFERENCE_28,75.30,15.0,5.020,0.199,10.800,8.100,0.000,0.000,0.000,0.000,18.900,No
 Zone Internal Gains Nominal, BREAK_ROOM_28,32.41,3.0,10.805,9.255E-002,8.100,15.000,0.000,0.000,0.000,0.000,23.100,No
 Zone Internal Gains Nominal, MECHANICAL_28,42.46,1.0,42.457,2.355E-002,5.400,0.000,0.000,0.000,0.000,0.000,5.400,No
 Zone Internal Gains Nominal, OFFICE_OPEN_28,274.83,13.0,21.141,4.730E-002,10.800,8.100,0.000,0.000,0.000,0.000,18.900,No
 Zone Internal Gains Nominal, STORAGE_28,44.52,1.0,44.521,2.246E-002,5.400,1.100,0.000,0.000,0.000,0.000,6.500,No
 Zone Internal Gains Nominal, CONFERENCE_29,91.94,18.0,5.108,0.196,10.800,8.100,0.000,0.000,0.000,0.000,18.900,No
 Zone Internal Gains Nominal, BREAK_ROOM_29,32.31,3.0,10.771,9.284E-002,8.100,15.000,0.000,0.000,0.000,0.000,23.100,No
 Zone Internal Gains Nominal, OFFICE_OPEN_29,282.21,14.0,20.158,4.961E-002,10.800,8.100,0.000,0.000,0.000,0.000,18.900,No
 Zone Internal Gains Nominal, OFFICE_PRIVATE_29,25.98,1.0,25.980,3.849E-002,10.800,8.100,0.000,0.000,0.000,0.000,18.900,No
 Zone Internal Gains Nominal, STORAGE_29,47.73,1.0,47.727,2.095E-002,5.400,1.100,0.000,0.000,0.000,0.000,6.500,No
 Zone Internal Gains Nominal, LOBBY_30,73.30,3.0,24.433,4.093E-002,12.900,3.200,0.000,0.000,0.000,0.000,16.100,No
 Zone Internal Gains Nominal, CONFERENCE_30,70.32,14.0,5.023,0.199,10.800,8.100,0.000,0.000,0.000,0.000,18.900,No
 Zone Internal Gains Nominal, BREAK_ROOM_30,56.60,5.0,11.320,8.834E-002,8.100,15.000,0.000,0.000,0.000,0.000,23.100,No
 Zone Internal Gains Nominal, MECHANICAL_30,95.67,1.0,95.672,1.045E-002,5.400,0.000,0.000,0.000,0.000,0.000,5.400,No
 Zone Internal Gains Nominal, OFFICE_OPEN_30,229.57,11.0,20.870,4.792E-002,10.800,8.100,0.000,0.000,0.000,0.000,18.900,No
 Zone Internal Gains Nominal, OFFICE_PRIVATE_30,30.88,1.0,30.881,3.238E-002,10.800,8.100,0.000,0.000,0.000,0.000,18.900,No
 Zone Internal Gains Nominal, STORAGE_30,12.75,1.0,12.752,7.842E-002,5.400,1.100,0.000,0.000,0.000,0.000,6.500,No
 Zone Internal Gains Nominal, LOBBY_31,163.02,8.0,20.378,4.907E-002,12.900,3.200,0.000,0.000,0.000,0.000,16.100,No
 Zone Internal Gains Nominal, CONFERENCE_31,57.40,11.0,5.218,0.192,10.800,8.100,0.000,0.000,0.000,0.000,18.900,No
 Zone Internal Gains Nominal, BREAK_ROOM_31,70.26,7.0,10.037,9.963E-002,8.100,15.000,0.000,0.000,0.000,0.000,23.100,No
 Zone Internal Gains Nominal, MECHANICAL_31,64.32,1.0,64.320,1.555E-002,5.400,0.000,0.000,0.000,0.000,0.000,5.400,No
 Zone Internal Gains Nominal, OFFICE_OPEN_31,473.58,23.0,20.591,4.857E-002,10.800,8.100,0.000,0.000,0.000,0.000,18.900,No
 Zone Internal Gains Nominal, OFFICE_PRIVATE_31,43.62,2.0,21.810,4.585E-002,10.800,8.100,0.000,0.000,0.000,0.000,18.900,No
 Zone Internal Gains Nominal, STORAGE_31,16.24,1.0,16.242,6.157E-002,5.400,1.100,0.000,0.000,0.000,0.000,6.500,No
 Zone Internal Gains Nominal, CONFERENCE_32,38.10,7.0,5.443,0.184,10.800,8.100,0.000,0.000,0.000,0.000,18.900,No
 Zone Internal Gains Nominal, BREAK_ROOM_32,48.04,4.0,12.010,8.327E-002,8.100,15.000,0.000,0.000,0.000,0.000,23.100,No
 Zone Internal Gains Nominal, MECHANICAL_32,64.82,1.0,64.821,1.543E-002,5.400,0.000,0.000,0.000,0.000,0.000,5.400,No
 Zone Internal Gains Nominal, OFFICE_OPEN_32,452.52,22.0,20.569,4.862E-002,10.800,8.100,0.000,0.000,0.000,0.000,18.900,No
 Zone Internal Gains Nominal, OFFICE_PRIVATE_32,24.98,1.0,24.982,4.003E-002,10.800,8.100,0.000,0.000,0.000,0.000,18.900,No
 Zone Internal Gains Nominal, STORAGE_32,46.12,1.0,46.115,2.168E-002,5.400,1.100,0.000,0.000,0.000,0.000,6.500,No
 Zone Internal Gains Nominal, LOBBY_33,105.61,5.0,21.121,4.735E-002,12.900,3.200,0.000,0.000,0.000,0.000,16.100,No
 Zone Internal Gains Nominal, CONFERENCE_33,83.65,16.0,5.228,0.191,10.800,8.100,0.000,0.000,0.000,0.000,18.900,No
 Zone Internal Gains Nominal, BREAK_ROOM_33,26.49,2.0,13.246,7.550E-002,8.100,15.000,0.000,0.000,0.000,0.000,23.100,No
 Zone Internal Gains Nominal, MECHANICAL_33,66.35,1.0,66.349,1.507E-002,5.400,0.000,0.000,0.000,0.000,0.000,5.400,No
 Zone Internal Gains Nominal, OFFICE_OPEN_33,103.45,5.0,20.690,4.833E-002,10.800,8.100,0.000,0.000,0.000,0.000,18.900,No
 Zone Internal Gains Nominal, OFFICE_PRIVATE_33,31.32,1.0,31.324,3.192E-002,10.800,8.100,0.000,0.000,0.000,0.000,18.900,No
[...]
 Warmup Convergence Information,LOBBY_19,RunPeriod: YEAR ROUND RUN PERIOD,8.7941184577E-002,9.8545829972E-002,Pass,Pass,8.1963751899E-003,9.3066745495E-003,Pass,Pass
 Warmup Convergence Information,CONFERENCE_19,RunPeriod: YEAR ROUND RUN PERIOD,8.9598402804E-002,0.1022650149,Pass,Pass,8.6895339000E-003,1.0146473050E-002,Pass,Pass
 Warmup Convergence Information,BREAK_ROOM_19,RunPeriod: YEAR ROUND RUN PERIOD,8.4593512692E-002,9.8354425386E-002,Pass,Pass,6.6747556212E-003,7.9577040865E-003,Pass,Pass
 Warmup Convergence Information,MECHANICAL_19,RunPeriod: YEAR ROUND RUN PERIOD,9.2361753033E-002,0.1094046109,Pass,Pass,7.9566317069E-003,9.5420250540E-003,Pass,Pass
 Warmup Convergence Information,OFFICE_OPEN_19,RunPeriod: YEAR ROUND RUN PERIOD,6.7278215137E-002,7.7611250577E-002,Pass,Pass,6.9207514574E-003,8.0824281456E-003,Pass,Pass
 Warmup Convergence Information,OFFICE_PRIVATE_19,RunPeriod: YEAR ROUND RUN PERIOD,0.1130882653,0.1287573833,Pass,Pass,9.8886524980E-003,1.1414341989E-002,Pass,Pass
 Warmup Convergence Information,STORAGE_19,RunPeriod: YEAR ROUND RUN PERIOD,0.1203717182,0.1448267599,Pass,Pass,9.4458697685E-003,1.2107390105E-002,Pass,Pass
 Warmup Convergence Information,LOBBY_20,RunPeriod: YEAR ROUND RUN PERIOD,6.2646082708E-002,7.3840480016E-002,Pass,Pass,6.2689531264E-003,7.3122339762E-003,Pass,Pass
 Warmup Convergence Information,CONFERENCE_20,RunPeriod: YEAR ROUND RUN PERIOD,0.1104247964,0.1301105624,Pass,Pass,9.4722689337E-003,1.1378570031E-002,Pass,Pass
 Warmup Convergence Information,BREAK_ROOM_20,RunPeriod: YEAR ROUND RUN PERIOD,0.1010423308,0.1208357878,Pass,Pass,8.8906294843E-003,1.0816253530E-002,Pass,Pass
 Warmup Convergence Information,MECHANICAL_20,RunPeriod: YEAR ROUND RUN PERIOD,0.1544316448,0.1869300472,Pass,Pass,1.1083284076E-002,1.4216943098E-002,Pass,Pass
 Warmup Convergence Information,OFFICE_OPEN_20,RunPeriod: YEAR ROUND RUN PERIOD,3.8178883478E-002,4.4563327450E-002,Pass,Pass,4.5837778213E-003,5.4045333467E-003,Pass,Pass
 Warmup Convergence Information,OFFICE_PRIVATE_20,RunPeriod: YEAR ROUND RUN PERIOD,0.1130188102,0.1255385487,Pass,Pass,1.0097114592E-002,1.1421506839E-002,Pass,Pass
 Warmup Convergence Information,STORAGE_20,RunPeriod: YEAR ROUND RUN PERIOD,0.1325264522,0.1521864297,Pass,Pass,1.0424924370E-002,1.2151162167E-002,Pass,Pass
 Warmup Convergence Information,LOBBY_21,RunPeriod: YEAR ROUND RUN PERIOD,9.6220773507E-002,0.1200046445,Pass,Pass,7.9392803585E-003,1.0463990961E-002,Pass,Pass
 Warmup Convergence Information,CONFERENCE_21,RunPeriod: YEAR ROUND RUN PERIOD,8.1520256834E-002,9.2310109557E-002,Pass,Pass,7.7669943593E-003,9.2690077919E-003,Pass,Pass
 Warmup Convergence Information,MECHANICAL_21,RunPeriod: YEAR ROUND RUN PERIOD,9.4079055844E-002,0.1202279043,Pass,Pass,7.1813801842E-003,9.6388750562E-003,Pass,Pass
 Warmup Convergence Information,OFFICE_OPEN_21,RunPeriod: YEAR ROUND RUN PERIOD,6.0215795968E-002,7.0092917472E-002,Pass,Pass,6.4026059043E-003,7.5409941361E-003,Pass,Pass
 Warmup Convergence Information,STORAGE_21,RunPeriod: YEAR ROUND RUN PERIOD,0.1880461984,0.2047502305,Pass,Pass,1.3972891784E-002,1.5665898595E-002,Pass,Pass
 Warmup Convergence Information,LOBBY_22,RunPeriod: YEAR ROUND RUN PERIOD,6.1901382381E-002,7.1086665072E-002,Pass,Pass,6.1433011661E-003,7.1444191889E-003,Pass,Pass
 Warmup Convergence Information,CONFERENCE_22,RunPeriod: YEAR ROUND RUN PERIOD,8.3254340395E-002,9.7108700249E-002,Pass,Pass,7.8013504396E-003,9.2565301228E-003,Pass,Pass
 Warmup Convergence Information,BREAK_ROOM_22,RunPeriod: YEAR ROUND RUN PERIOD,0.1352603996,0.1488517591,Pass,Pass,1.1891848135E-002,1.3385999079E-002,Pass,Pass
 Warmup Convergence Information,MECHANICAL_22,RunPeriod: YEAR ROUND RUN PERIOD,8.1388511304E-002,9.1419959369E-002,Pass,Pass,7.3854441599E-003,8.3812338513E-003,Pass,Pass
 Warmup Convergence Information,OFFICE_OPEN_22,RunPeriod: YEAR ROUND RUN PERIOD,5.7388826661E-002,6.5800866095E-002,Pass,Pass,6.1445987389E-003,7.1326016071E-003,Pass,Pass
 Warmup Convergence Information,OFFICE_PRIVATE_22,RunPeriod: YEAR ROUND RUN PERIOD,0.1125861005,0.1345030974,Pass,Pass,9.0502598017E-003,1.1219974520E-002,Pass,Pass
 Warmup Convergence Information,STORAGE_22,RunPeriod: YEAR ROUND RUN PERIOD,0.1036773824,0.1257034894,Pass,Pass,7.9428167207E-003,1.0903933233E-002,Pass,Pass
 Warmup Convergence Information,LOBBY_23,RunPeriod: YEAR ROUND RUN PERIOD,5.6846403307E-002,6.4782347906E-002,Pass,Pass,5.8974148207E-003,6.8177007681E-003,Pass,Pass
 Warmup Convergence Information,BREAK_ROOM_23,RunPeriod: YEAR ROUND RUN PERIOD,0.1475988221,0.1710488940,Pass,Pass,1.2109258755E-002,1.4375010372E-002,Pass,Pass
 Warmup Convergence Information,MECHANICAL_23,RunPeriod: YEAR ROUND RUN PERIOD,0.1035047994,0.1278061262,Pass,Pass,8.6644817112E-003,1.1421807336E-002,Pass,Pass
 Warmup Convergence Information,OFFICE_OPEN_23,RunPeriod: YEAR ROUND RUN PERIOD,3.6017433487E-002,4.1437343834E-002,Pass,Pass,4.3097325546E-003,5.1014098198E-003,Pass,Pass
 Warmup Convergence Information,OFFICE_PRIVATE_23,RunPeriod: YEAR ROUND RUN PERIOD,0.1036442463,0.1214259374,Pass,Pass,9.1487638163E-003,1.0877847695E-002,Pass,Pass
 Warmup Convergence Information,STORAGE_23,RunPeriod: YEAR ROUND RUN PERIOD,0.1187489769,0.1326623550,Pass,Pass,9.6548133119E-003,1.1062444521E-002,Pass,Pass
 Warmup Convergence Information,LOBBY_24,RunPeriod: YEAR ROUND RUN PERIOD,0.1018852816,0.1172252072,Pass,Pass,8.9156447373E-003,1.0394062970E-002,Pass,Pass
 Warmup Convergence Information,CONFERENCE_24,RunPeriod: YEAR ROUND RUN PERIOD,7.6791464057E-002,9.1800547221E-002,Pass,Pass,7.3458933640E-003,8.8017081595E-003,Pass,Pass
 Warmup Convergence Information,BREAK_ROOM_24,RunPeriod: YEAR ROUND RUN PERIOD,0.1108593152,0.1303329376,Pass,Pass,9.9417999804E-003,1.1903933437E-002,Pass,Pass
 Warmup Convergence Information,MECHANICAL_24,RunPeriod: YEAR ROUND RUN PERIOD,9.2282771839E-002,0.1079132682,Pass,Pass,7.7437771237E-003,9.1961968405E-003,Pass,Pass
 Warmup Convergence Information,OFFICE_OPEN_24,RunPeriod: YEAR ROUND RUN PERIOD,4.6640042755E-002,5.4154608443E-002,Pass,Pass,5.3363064616E-003,6.2626008410E-003,Pass,Pass
 Warmup Convergence Information,OFFICE_PRIVATE_24,RunPeriod: YEAR ROUND RUN PERIOD,0.1530624754,0.1746323590,Pass,Pass,1.2041887660E-002,1.3982962755E-002,Pass,Pass
 Warmup Convergence Information,STORAGE_24,RunPeriod: YEAR ROUND RUN PERIOD,0.1118492027,0.1336061322,Pass,Pass,8.7975891442E-003,1.0692611001E-002,Pass,Pass
 Warmup Convergence Information,LOBBY_25,RunPeriod: YEAR ROUND RUN PERIOD,9.2508832023E-002,0.1093510321,Pass,Pass,8.1448798180E-003,9.7650206286E-003,Pass,Pass
 Warmup Convergence Information,CONFERENCE_25,RunPeriod: YEAR ROUND RUN PERIOD,0.1098530994,0.1314944771,Pass,Pass,9.3655081742E-003,1.1460111539E-002,Pass,Pass
 Warmup Convergence Information,BREAK_ROOM_25,RunPeriod: YEAR ROUND RUN PERIOD,0.1603205233,0.1824544495,Pass,Pass,1.2959937291E-002,1.5110781412E-002,Pass,Pass
 Warmup Convergence Information,MECHANICAL_25,RunPeriod: YEAR ROUND RUN PERIOD,9.7212349692E-002,0.1196173790,Pass,Pass,7.4654093151E-003,1.0005266424E-002,Pass,Pass
 Warmup Convergence Information,OFFICE_OPEN_25,RunPeriod: YEAR ROUND RUN PERIOD,4.0027449358E-002,4.3691345257E-002,Pass,Pass,4.8888068691E-003,5.3751117680E-003,Pass,Pass
 Warmup Convergence Information,OFFICE_PRIVATE_25,RunPeriod: YEAR ROUND RUN PERIOD,0.1540581559,0.1699143136,Pass,Pass,1.2199333210E-002,1.3719276044E-002,Pass,Pass
 Warmup Convergence Information,STORAGE_25,RunPeriod: YEAR ROUND RUN PERIOD,0.1409318805,0.1745712499,Pass,Pass,9.2493400032E-003,1.2903975364E-002,Pass,Pass
 Warmup Convergence Information,LOBBY_26,RunPeriod: YEAR ROUND RUN PERIOD,0.1027549681,0.1122511460,Pass,Pass,9.0365762988E-003,9.9688684935E-003,Pass,Pass
 Warmup Convergence Information,CONFERENCE_26,RunPeriod: YEAR ROUND RUN PERIOD,8.5631069422E-002,0.1035125908,Pass,Pass,7.1824558091E-003,9.4561627989E-003,Pass,Pass
 Warmup Convergence Information,BREAK_ROOM_26,RunPeriod: YEAR ROUND RUN PERIOD,8.8639030940E-002,0.1012983158,Pass,Pass,8.5924105174E-003,9.9585835723E-003,Pass,Pass
 Warmup Convergence Information,OFFICE_OPEN_26,RunPeriod: YEAR ROUND RUN PERIOD,3.5664297044E-002,4.1067920182E-002,Pass,Pass,4.2972081818E-003,4.9940805997E-003,Pass,Pass
 Warmup Convergence Information,OFFICE_PRIVATE_26,RunPeriod: YEAR ROUND RUN PERIOD,0.1251360842,0.1515356659,Pass,Pass,1.0348801800E-002,1.3058715900E-002,Pass,Pass
 Warmup Convergence Information,STORAGE_26,RunPeriod: YEAR ROUND RUN PERIOD,0.1059387247,0.1272365703,Pass,Pass,8.4524961865E-003,1.0869492698E-002,Pass,Pass
 Warmup Convergence Information,LOBBY_27,RunPeriod: YEAR ROUND RUN PERIOD,9.9620721019E-002,0.1127945653,Pass,Pass,8.8092243644E-003,1.0232012322E-002,Pass,Pass
 Warmup Convergence Information,CONFERENCE_27,RunPeriod: YEAR ROUND RUN PERIOD,0.1135330992,0.1253455005,Pass,Pass,9.9629318538E-003,1.1220034053E-002,Pass,Pass
 Warmup Convergence Information,BREAK_ROOM_27,RunPeriod: YEAR ROUND RUN PERIOD,8.2092874508E-002,9.6231791165E-002,Pass,Pass,7.6643467077E-003,9.9201516506E-003,Pass,Pass
 Warmup Convergence Information,MECHANICAL_27,RunPeriod: YEAR ROUND RUN PERIOD,8.5981137977E-002,0.1032501125,Pass,Pass,7.3493227468E-003,9.3706903179E-003,Pass,Pass
 Warmup Convergence Information,OFFICE_OPEN_27,RunPeriod: YEAR ROUND RUN PERIOD,4.1714720202E-002,4.7107705779E-002,Pass,Pass,4.8648896161E-003,5.6453585264E-003,Pass,Pass
 Warmup Convergence Information,OFFICE_PRIVATE_27,RunPeriod: YEAR ROUND RUN PERIOD,0.1364789997,0.1573022603,Pass,Pass,1.1094224390E-002,1.3012143336E-002,Pass,Pass
 Warmup Convergence Information,STORAGE_27,RunPeriod: YEAR ROUND RUN PERIOD,0.1218579894,0.1341418681,Pass,Pass,1.0072286759E-002,1.1266218280E-002,Pass,Pass
 Warmup Convergence Information,LOBBY_28,RunPeriod: YEAR ROUND RUN PERIOD,7.1916460252E-002,8.2418418685E-002,Pass,Pass,6.8436548146E-003,8.0574250912E-003,Pass,Pass
 Warmup Convergence Information,CONFERENCE_28,RunPeriod: YEAR ROUND RUN PERIOD,8.7636030291E-002,0.1033601453,Pass,Pass,8.1291078372E-003,9.7411265525E-003,Pass,Pass
 Warmup Convergence Information,BREAK_ROOM_28,RunPeriod: YEAR ROUND RUN PERIOD,0.1088670953,0.1331174415,Pass,Pass,8.6656755950E-003,1.1182975284E-002,Pass,Pass
 Warmup Convergence Information,MECHANICAL_28,RunPeriod: YEAR ROUND RUN PERIOD,0.1164416370,0.1362956428,Pass,Pass,9.1968369940E-003,1.0918965284E-002,Pass,Pass
 Warmup Convergence Information,OFFICE_OPEN_28,RunPeriod: YEAR ROUND RUN PERIOD,4.6966298268E-002,5.4689049113E-002,Pass,Pass,5.3207755997E-003,6.2658739713E-003,Pass,Pass
 Warmup Convergence Information,STORAGE_28,RunPeriod: YEAR ROUND RUN PERIOD,0.1100010896,0.1269262200,Pass,Pass,9.0619555021E-003,1.0786341065E-002,Pass,Pass
 Warmup Convergence Information,CONFERENCE_29,RunPeriod: YEAR ROUND RUN PERIOD,7.9349098974E-002,9.2231812173E-002,Pass,Pass,7.6214026379E-003,8.9825996880E-003,Pass,Pass
 Warmup Convergence Information,BREAK_ROOM_29,RunPeriod: YEAR ROUND RUN PERIOD,0.1287341449,0.1503114566,Pass,Pass,1.0893776292E-002,1.3023429347E-002,Pass,Pass
 Warmup Convergence Information,OFFICE_OPEN_29,RunPeriod: YEAR ROUND RUN PERIOD,4.5710595942E-002,5.0423577418E-002,Pass,Pass,5.2188907177E-003,5.8505050894E-003,Pass,Pass
 Warmup Convergence Information,OFFICE_PRIVATE_29,RunPeriod: YEAR ROUND RUN PERIOD,0.1380695407,0.1557055021,Pass,Pass,1.0630453331E-002,1.2521787841E-002,Pass,Pass
 Warmup Convergence Information,STORAGE_29,RunPeriod: YEAR ROUND RUN PERIOD,9.8868068240E-002,0.1257910633,Pass,Pass,7.6064927910E-003,1.0052149236E-002,Pass,Pass
 Warmup Convergence Information,LOBBY_30,RunPeriod: YEAR ROUND RUN PERIOD,8.7227151777E-002,9.8828899300E-002,Pass,Pass,7.8229498934E-003,9.0193724774E-003,Pass,Pass
 Warmup Convergence Information,CONFERENCE_30,RunPeriod: YEAR ROUND RUN PERIOD,9.1196910023E-002,0.1079731206,Pass,Pass,8.3179854665E-003,1.0006540211E-002,Pass,Pass
 Warmup Convergence Information,BREAK_ROOM_30,RunPeriod: YEAR ROUND RUN PERIOD,9.6069453307E-002,0.1180907002,Pass,Pass,9.1159911387E-003,1.1488580047E-002,Pass,Pass
 Warmup Convergence Information,MECHANICAL_30,RunPeriod: YEAR ROUND RUN PERIOD,8.1390321992E-002,9.6152838743E-002,Pass,Pass,7.1045848206E-003,8.5011203598E-003,Pass,Pass
 Warmup Convergence Information,OFFICE_OPEN_30,RunPeriod: YEAR ROUND RUN PERIOD,5.1793783160E-002,6.1327679086E-002,Pass,Pass,5.6497091918E-003,6.7823542151E-003,Pass,Pass
 Warmup Convergence Information,OFFICE_PRIVATE_30,RunPeriod: YEAR ROUND RUN PERIOD,0.1213657803,0.1481174999,Pass,Pass,9.6125948325E-003,1.2370048030E-002,Pass,Pass
 Warmup Convergence Information,STORAGE_30,RunPeriod: YEAR ROUND RUN PERIOD,0.1776587073,0.2053677190,Pass,Pass,1.2471946483E-002,1.4933087546E-002,Pass,Pass
 Warmup Convergence Information,LOBBY_31,RunPeriod: YEAR ROUND RUN PERIOD,6.0781999694E-002,6.7038100904E-002,Pass,Pass,6.2113793960E-003,6.9282379569E-003,Pass,Pass
 Warmup Convergence Information,CONFERENCE_31,RunPeriod: YEAR ROUND RUN PERIOD,8.5505520708E-002,0.1137063313,Pass,Pass,7.3224264070E-003,1.0005990430E-002,Pass,Pass
 Warmup Convergence Information,BREAK_ROOM_31,RunPeriod: YEAR ROUND RUN PERIOD,9.1464860140E-002,0.1037523461,Pass,Pass,8.9726506495E-003,1.0332659025E-002,Pass,Pass
 Warmup Convergence Information,MECHANICAL_31,RunPeriod: YEAR ROUND RUN PERIOD,9.7531151257E-002,0.1079549429,Pass,Pass,8.3174348788E-003,9.2991202740E-003,Pass,Pass
 Warmup Convergence Information,OFFICE_OPEN_31,RunPeriod: YEAR ROUND RUN PERIOD,3.5143035966E-002,3.9584847938E-002,Pass,Pass,4.2554293317E-003,4.8396332611E-003,Pass,Pass
 Warmup Convergence Information,OFFICE_PRIVATE_31,RunPeriod: YEAR ROUND RUN PERIOD,9.9259660968E-002,0.1214303766,Pass,Pass,8.4843790655E-003,1.0764113856E-002,Pass,Pass
 Warmup Convergence Information,STORAGE_31,RunPeriod: YEAR ROUND RUN PERIOD,0.1797361287,0.2045122017,Pass,Pass,1.3077333607E-002,1.5151015298E-002,Pass,Pass
 Warmup Convergence Information,CONFERENCE_32,RunPeriod: YEAR ROUND RUN PERIOD,0.1194765416,0.1358161613,Pass,Pass,1.0160692695E-002,1.1735432838E-002,Pass,Pass
 Warmup Convergence Information,BREAK_ROOM_32,RunPeriod: YEAR ROUND RUN PERIOD,0.1092446917,0.1275535194,Pass,Pass,9.8671824323E-003,1.1707162396E-002,Pass,Pass
 Warmup Convergence Information,MECHANICAL_32,RunPeriod: YEAR ROUND RUN PERIOD,9.0805780816E-002,0.1080142311,Pass,Pass,7.5725227284E-003,9.2017023612E-003,Pass,Pass
 Warmup Convergence Information,OFFICE_OPEN_32,RunPeriod: YEAR ROUND RUN PERIOD,3.6809979141E-002,4.0093930165E-002,Pass,Pass,4.5232264939E-003,4.9564198884E-003,Pass,Pass
 Warmup Convergence Information,OFFICE_PRIVATE_32,RunPeriod: YEAR ROUND RUN PERIOD,0.1465166847,0.1655850586,Pass,Pass,1.1782620026E-002,1.3566088549E-002,Pass,Pass
 Warmup Convergence Information,STORAGE_32,RunPeriod: YEAR ROUND RUN PERIOD,0.1123950308,0.1265445379,Pass,Pass,9.1724431341E-003,1.0488266202E-002,Pass,Pass
 Warmup Convergence Information,LOBBY_33,RunPeriod: YEAR ROUND RUN PERIOD,7.5057869377E-002,8.8131404026E-002,Pass,Pass,7.0272603024E-003,8.3683438824E-003,Pass,Pass
 Warmup Convergence Information,CONFERENCE_33,RunPeriod: YEAR ROUND RUN PERIOD,8.2727428065E-002,9.4147367445E-002,Pass,Pass,7.9061388735E-003,9.1291106630E-003,Pass,Pass
 Warmup Convergence Information,BREAK_ROOM_33,RunPeriod: YEAR ROUND RUN PERIOD,0.1446250821,0.1638489413,Pass,Pass,1.2114642823E-002,1.3984224436E-002,Pass,Pass
 Warmup Convergence Information,MECHANICAL_33,RunPeriod: YEAR ROUND RUN PERIOD,9.5140299145E-002,0.1099762862,Pass,Pass,8.0558097092E-003,9.4922596944E-003,Pass,Pass
 Warmup Convergence Information,OFFICE_OPEN_33,RunPeriod: YEAR ROUND RUN PERIOD,7.5945342223E-002,8.8040070702E-002,Pass,Pass,7.3985958064E-003,8.6979205333E-003,Pass,Pass
 Warmup Convergence Information,OFFICE_PRIVATE_33,RunPeriod: YEAR ROUND RUN PERIOD,0.1330979433,0.1508701395,Pass,Pass,1.1033010820E-002,1.2730054888E-002,Pass,Pass
 Warmup Convergence Information,STORAGE_33,RunPeriod: YEAR ROUND RUN PERIOD,0.1064934045,0.1298981446,Pass,Pass,8.5183197912E-003,1.0898361397E-002,Pass,Pass
 Warmup Convergence Information,LOBBY_34,RunPeriod: YEAR ROUND RUN PERIOD,5.9827918293E-002,6.7879381287E-002,Pass,Pass,5.9316101608E-003,7.0786701125E-003,Pass,Pass
 Warmup Convergence Information,BREAK_ROOM_34,RunPeriod: YEAR ROUND RUN PERIOD,8.8484705379E-002,0.1065752705,Pass,Pass,8.5889721375E-003,1.0550912662E-002,Pass,Pass
 Warmup Convergence Information,MECHANICAL_34,RunPeriod: YEAR ROUND RUN PERIOD,0.1282644464,0.1429703142,Pass,Pass,1.0236207719E-002,1.1619566781E-002,Pass,Pass
 Warmup Convergence Information,OFFICE_OPEN_34,RunPeriod: YEAR ROUND RUN PERIOD,4.4152572523E-002,5.2033610583E-002,Pass,Pass,4.9362399087E-003,5.8804076847E-003,Pass,Pass
 Warmup Convergence Information,OFFICE_PRIVATE_34,RunPeriod: YEAR ROUND RUN PERIOD,0.1454744755,0.1595954224,Pass,Pass,1.1949912762E-002,1.3398813876E-002,Pass,Pass
 Warmup Convergence Information,STORAGE_34,RunPeriod: YEAR ROUND RUN PERIOD,0.1777546506,0.2287174986,Pass,Pass,1.2170632458E-002,1.6405082841E-002,Pass,Pass
 Warmup Convergence Information,LOBBY_35,RunPeriod: YEAR ROUND RUN PERIOD,6.9948023187E-002,8.3759985834E-002,Pass,Pass,6.6906180344E-003,8.3043996377E-003,Pass,Pass
 Warmup Convergence Information,BREAK_ROOM_35,RunPeriod: YEAR ROUND RUN PERIOD,0.1222474210,0.1375442033,Pass,Pass,1.0831800479E-002,1.2417699541E-002,Pass,Pass
 Warmup Convergence Information,MECHANICAL_35,RunPeriod: YEAR ROUND RUN PERIOD,0.1073276417,0.1248650623,Pass,Pass,8.7593188545E-003,1.0311468061E-002,Pass,Pass
 Warmup Convergence Information,OFFICE_OPEN_35,RunPeriod: YEAR ROUND RUN PERIOD,4.9344273166E-002,5.6703830538E-002,Pass,Pass,5.4761030825E-003,6.3718348461E-003,Pass,Pass
 Warmup Convergence Information,OFFICE_PRIVATE_35,RunPeriod: YEAR ROUND RUN PERIOD,0.1341657674,0.1552645825,Pass,Pass,1.0962247192E-002,1.2810751635E-002,Pass,Pass
 Warmup Convergence Information,STORAGE_35,RunPeriod: YEAR ROUND RUN PERIOD,0.1652429915,0.1832295198,Pass,Pass,1.2453159195E-002,1.4117950462E-002,Pass,Pass
 Warmup Convergence Information,LOBBY_36,RunPeriod: YEAR ROUND RUN PERIOD,5.7614231539E-002,6.6975433850E-002,Pass,Pass,5.7697676054E-003,6.7743496034E-003,Pass,Pass
 Warmup Convergence Information,CONFERENCE_36,RunPeriod: YEAR ROUND RUN PERIOD,9.1234663997E-002,0.1061469923,Pass,Pass,8.3038503522E-003,9.8129152320E-003,Pass,Pass
 Warmup Convergence Information,BREAK_ROOM_36,RunPeriod: YEAR ROUND RUN PERIOD,0.1121899529,0.1306752474,Pass,Pass,1.0078709904E-002,1.1920218470E-002,Pass,Pass
 Warmup Convergence Information,MECHANICAL_36,RunPeriod: YEAR ROUND RUN PERIOD,9.2274497897E-002,0.1043549695,Pass,Pass,7.8729721293E-003,9.0031855061E-003,Pass,Pass
 Warmup Convergence Information,OFFICE_OPEN_36,RunPeriod: YEAR ROUND RUN PERIOD,6.2310224274E-002,6.9069753392E-002,Pass,Pass,6.4578046590E-003,7.2279635782E-003,Pass,Pass
 Warmup Convergence Information,OFFICE_PRIVATE_36,RunPeriod: YEAR ROUND RUN PERIOD,0.1128421646,0.1325229821,Pass,Pass,9.4570062299E-003,1.1307496418E-002,Pass,Pass
 Warmup Convergence Information,STORAGE_36,RunPeriod: YEAR ROUND RUN PERIOD,0.2006240187,0.2375959121,Pass,Pass,1.3492559782E-002,1.7066567617E-002,Pass,Pass
 Warmup Convergence Information,LOBBY_37,RunPeriod: YEAR ROUND RUN PERIOD,8.5954169084E-002,9.9556946223E-002,Pass,Pass,7.5613220171E-003,9.3182293888E-003,Pass,Pass
 Warmup Convergence Information,CONFERENCE_37,RunPeriod: YEAR ROUND RUN PERIOD,9.5544407554E-002,0.1157969621,Pass,Pass,8.2047774128E-003,1.0610144925E-002,Pass,Pass
 Warmup Convergence Information,BREAK_ROOM_37,RunPeriod: YEAR ROUND RUN PERIOD,8.7573143284E-002,0.1009817665,Pass,Pass,8.5471680525E-003,1.0031177129E-002,Pass,Pass
 Warmup Convergence Information,MECHANICAL_37,RunPeriod: YEAR ROUND RUN PERIOD,8.2203351756E-002,9.6704599575E-002,Pass,Pass,7.1086523010E-003,8.4669513413E-003,Pass,Pass
 Warmup Convergence Information,OFFICE_PRIVATE_37,RunPeriod: YEAR ROUND RUN PERIOD,0.1650122410,0.1795516236,Pass,Pass,1.25914