Program Version,EnergyPlus, Version 24.2.0-94a887817b, YMD=2025.11.02 09:28
! <Version>, Version ID
 Version, 24.2.0
! <Timesteps per Hour>, #TimeSteps, Minutes per TimeStep {minutes}
 Timesteps per Hour,  4, 15
! <System Convergence Limits>, Minimum System TimeStep {minutes}, Max HVAC Iterations, Minimum Plant Iterations, Maximum Plant Iterations
 System Convergence Limits, 1, 20, 2, 8
! <Simulation Control>, Do Zone Sizing, Do System Sizing, Do Plant Sizing, Do Design Days, Do Weather Simulation, Do HVAC Sizing Simulation
 Simulation Control, No, No, No, No, Yes, No
! <Performance Precision Tradeoffs>, Use Coil Direct Simulation, Zone Radiant Exchange Algorithm, Override Mode, Number of Timestep In Hour, Force Euler Method, Minimum Number of Warmup Days, Force Suppress All Begin Environment Resets, Minimum System Timestep, MaxZoneTempDiff, MaxAllowedDelTemp
 Performance Precision Tradeoffs, No, ScriptF, Normal, 4, No, 1, No, 1.0, 0.300, 2.0000E-003
! <Output Reporting Tolerances>, Tolerance for Time Heating Setpoint Not Met, Tolerance for Zone Cooling Setpoint Not Met Time
 Output Reporting Tolerances, 0.200, 0.200, 
! <Site:GroundTemperature:BuildingSurface>,Jan{C},Feb{C},Mar{C},Apr{C},May{C},Jun{C},Jul{C},Aug{C},Sep{C},Oct{C},Nov{C},Dec{C}
 Site:GroundTemperature:BuildingSurface,  13.00,  12.00,  11.00,  10.00,  11.00,  13.00,  15.00,  16.00,  16.00,  15.00,  14.00,  13.00
! <Site:GroundTemperature:FCfactorMethod>,Jan{C},Feb{C},Mar{C},Apr{C},May{C},Jun{C},Jul{C},Aug{C},Sep{C},Oct{C},Nov{C},Dec{C}
 Site:GroundTemperature:FCfactorMethod,  -1.89,  -3.06,  -0.99,   2.23,  10.68,  17.20,  21.60,  22.94,  20.66,  15.60,   8.83,   2.56
! <Site:GroundTemperature:Shallow>,Jan{C},Feb{C},Mar{C},Apr{C},May{C},Jun{C},Jul{C},Aug{C},Sep{C},Oct{C},Nov{C},Dec{C}
 Site:GroundTemperature:Shallow,  11.00,  10.00,   9.00,   8.00,   9.00,  11.00,  13.00,  14.00,  14.00,  13.00,  12.00,  11.00
! <Site:GroundTemperature:Deep>,Jan{C},Feb{C},Mar{C},Apr{C},May{C},Jun{C},Jul{C},Aug{C},Sep{C},Oct{C},Nov{C},Dec{C}
 Site:GroundTemperature:Deep,   9.00,   8.00,   7.00,   6.00,   7.00,   9.00,  11.00,  12.00,  12.00,  11.00,  10.00,   9.00
! <Site:GroundReflectance>,Jan{dimensionless},Feb{dimensionless},Mar{dimensionless},Apr{dimensionless},May{dimensionless},Jun{dimensionless},Jul{dimensionless},Aug{dimensionless},Sep{dimensionless},Oct{dimensionless},Nov{dimensionless},Dec{dimensionless}
 Site:GroundReflectance,  0.20,  0.20,  0.20,  0.20,  0.20,  0.20,  0.20,  0.20,  0.20,  0.20,  0.20,  0.20
! <Site:GroundReflectance:SnowModifier>, Normal, Daylighting {dimensionless}
 Site:GroundReflectance:SnowModifier,   1.000,   1.000
! <Site:GroundReflectance:Snow>,Jan{dimensionless},Feb{dimensionless},Mar{dimensionless},Apr{dimensionless},May{dimensionless},Jun{dimensionless},Jul{dimensionless},Aug{dimensionless},Sep{dimensionless},Oct{dimensionless},Nov{dimensionless},Dec{dimensionless}
 Site:GroundReflectance:Snow,  0.20,  0.20,  0.20,  0.20,  0.20,  0.20,  0.20,  0.20,  0.20,  0.20,  0.20,  0.20
! <Site:GroundReflectance:Snow:Daylighting>,Jan{dimensionless},Feb{dimensionless},Mar{dimensionless},Apr{dimensionless},May{dimensionless},Jun{dimensionless},Jul{dimensionless},Aug{dimensionless},Sep{dimensionless},Oct{dimensionless},Nov{dimensionless},Dec{dimensionless}
 Site:GroundReflectance:Snow:Daylighting,  0.20,  0.20,  0.20,  0.20,  0.20,  0.20,  0.20,  0.20,  0.20,  0.20,  0.20,  0.20
! <Environment:Weather Station>,Wind Sensor Height Above Ground {m},Wind Speed Profile Exponent {},Wind Speed Profile Boundary Layer Thickness {m},Air Temperature Sensor Height Above Ground {m},Wind Speed Modifier Coefficient-Internal,Temperature Modifier Coefficient-Internal
Environment:Weather Station,10.000,0.140,270.000,1.500,1.586,9.750E-003
! <Site:Location>, Location Name, Latitude {N+/S- Deg}, Longitude {E+/W- Deg},  Time Zone Number {GMT+/-}, Elevation {m},  Standard Pressure at Elevation {Pa}, Standard RhoAir at Elevation
Site:Location,Chicago Ohare Intl Ap IL USA TMY3 WMO#=725300,41.98,-87.92,-6.00,201.00,98934,1.1759
! <Site Water Mains Temperature Information>,Calculation Method{},Water Mains Temperature Schedule Name{},Annual Average Outdoor Air Temperature{C},Maximum Difference In Monthly Average Outdoor Air Temperatures{deltaC},Fixed Default Water Mains Temperature{C}
Site Water Mains Temperature Information,FixedDefault,NA,NA,NA,10.0
! <Building Information>, Building Name,North Axis {deg},Terrain,  Loads Convergence Tolerance Value,Temperature Convergence Tolerance Value,  Solar Distribution,Maximum Number of Warmup Days,Minimum Number of Warmup Days
 Building Information,Professional Building,0.000,Suburbs,4.00000E-002,0.20000,FullInteriorAndExterior,15,6
! <Inside Convection Algorithm>, Algorithm {Simple | TARP | CeilingDiffuser | AdaptiveConvectionAlgorithm}
Inside Convection Algorithm,TARP
! <Outside Convection Algorithm>, Algorithm {SimpleCombined | TARP | MoWitt | DOE-2 | AdaptiveConvectionAlgorithm}
Outside Convection Algorithm,DOE-2
! <Sky Radiance Distribution>, Value {Anisotropic}
Sky Radiance Distribution,Anisotropic
! <Zone Air Solution Algorithm>, Algorithm {ThirdOrderBackwardDifference | AnalyticalSolution | EulerMethod}, Space Heat Balance Sizing, Space Heat Balance Simulation
 Zone Air Solution Algorithm, ThirdOrderBackwardDifference, No, No
! <Zone Air Carbon Dioxide Balance Simulation>, Simulation {Yes/No}, Carbon Dioxide Concentration
 Zone Air Carbon Dioxide Balance Simulation, No,N/A
! <Zone Air Generic Contaminant Balance Simulation>, Simulation {Yes/No}, Generic Contaminant Concentration
 Zone Air Generic Contaminant Balance Simulation, No,N/A
! <Zone Air Mass Flow Balance Simulation>, Enforce Mass Balance, Adjust Zone Mixing and Return {AdjustMixingOnly | AdjustReturnOnly | AdjustMixingThenReturn | AdjustReturnThenMixing | None}, Adjust Zone Infiltration {AddInfiltration | AdjustInfiltration | None}, Infiltration Zones {MixingSourceZonesOnly | AllZones}
 Zone Air Mass Flow Balance Simulation, No,N/A,N/A,N/A
! <HVACSystemRootFindingAlgorithm>, Value {RegulaFalsi | Bisection | BisectionThenRegulaFalsi | RegulaFalsiThenBisection}
 HVACSystemRootFindingAlgorithm, RegulaFalsi
! <Environment:Site Atmospheric Variation>,Wind Speed Profile Exponent {},Wind Speed Profile Boundary Layer Thickness {m},Air Temperature Gradient Coefficient {K/m}
Environment:Site Atmospheric Variation,0.220,370.000,6.500000E-003
! <Shadowing/Sun Position Calculations Annual Simulations>, Shading Calculation Method, Shading Calculation Update Frequency Method, Shading Calculation Update Frequency {days}, Maximum Figures in Shadow Overlap Calculations {}, Polygon Clipping Algorithm, Pixel Counting Resolution, Sky Diffuse Modeling Algorithm, Output External Shading Calculation Results, Disable Self-Shading Within Shading Zone Groups, Disable Self-Shading From Shading Zone Groups to Other Zones
Shadowing/Sun Position Calculations Annual Simulations,PolygonClipping,Periodic,20,15000,SutherlandHodgman,512,SimpleSkyDiffuseModeling,No,No,No
! <Surface Geometry>,Starting Corner,Vertex Input Direction,Coordinate System,Daylight Reference Point Coordinate System,Rectangular (Simple) Surface Coordinate System
 Surface Geometry,UpperLeftCorner,Counterclockwise,RelativeCoordinateSystem,RelativeCoordinateSystem,RelativeToZoneOrigin
! <Surface Heat Transfer Algorithm>, Value {CTF - ConductionTransferFunction | EMPD - MoisturePenetrationDepthConductionTransferFunction | CondFD - ConductionFiniteDifference | HAMT - CombinedHeatAndMoistureFiniteElement} - Description,Inside Surface Max Temperature Limit{C}, Surface Convection Coefficient Lower Limit {W/m2-K}, Surface Convection Coefficient Upper Limit {W/m2-K}
Surface Heat Transfer Algorithm, CTF - ConductionTransferFunction,200,0.10,1000.0
! <Shading Summary>, Number of Fixed Detached Shades, Number of Building Detached Shades, Number of Attached Shades
 Shading Summary,0,0,0
! <Zone Summary>, Number of Zones, Number of Zone Surfaces, Number of SubSurfaces
 Zone Summary,3,33,12
! <Zone Information>,Zone Name,North Axis {deg},Origin X-Coordinate {m},Origin Y-Coordinate {m},Origin Z-Coordinate {m},Centroid X-Coordinate {m},Centroid Y-Coordinate {m},Centroid Z-Coordinate {m},Type,Zone Multiplier,Zone List Multiplier,Minimum X {m},Maximum X {m},Minimum Y {m},Maximum Y {m},Minimum Z {m},Maximum Z {m},Ceiling Height {m},Volume {m3},Zone Inside Convection Algorithm {Simple-Detailed-CeilingDiffuser-TrombeWall},Zone Outside Convection Algorithm {Simple-Detailed-Tarp-MoWitt-DOE-2-BLAST}, Floor Area {m2},Exterior Gross Wall Area {m2},Exterior Net Wall Area {m2},Exterior Window Area {m2}, Number of Surfaces, Number of SubSurfaces, Number of Shading SubSurfaces,  Part of Total Building Area
 Zone Information, STORAGE_11,0.0,0.00,0.00,0.00,2.81,2.44,34.50,1,1,1,1.31,4.32,0.64,4.25,33.00,36.00,3.00,30.75,TARP,DOE-2,10.25,38.59,26.97,11.61,6,4,0,Yes
 Zone Information, BREAK_ROOM_70,0.0,0.00,0.00,0.00,7.45,-2.73,211.50,1,1,1,5.15,9.75,-5.14,-0.33,210.00,213.00,3.00,63.66,TARP,DOE-2,21.22,55.29,38.65,16.64,6,4,0,Yes
 Zone Information, STORAGE_85,0.0,0.00,0.00,0.00,4.78,-2.69,256.50,1,1,1,2.71,6.85,-4.95,-0.42,255.00,258.00,3.00,53.67,TARP,DOE-2,17.89,50.81,35.52,15.29,6,4,0,Yes
! <Zone Internal Gains Nominal>,Zone Name, Floor Area {m2},# Occupants,Area per Occupant {m2/person},Occupant per Area {person/m2},Interior Lighting {W/m2},Electric Load {W/m2},Gas Load {W/m2},Other Load {W/m2},Hot Water Eq {W/m2},Steam Equipment {W/m2},Sum Loads per Area {W/m2},Outdoor Controlled Baseboard Heat
 Zone Internal Gains Nominal, STORAGE_11,10.25,1.0,10.251,9.755E-002,5.400,1.100,0.000,0.000,0.000,0.000,6.500,No
 Zone Internal Gains Nominal, BREAK_ROOM_70,21.22,2.0,10.610,9.425E-002,8.100,15.000,0.000,0.000,0.000,0.000,23.100,No
 Zone Internal Gains Nominal, STORAGE_85,17.89,1.0,17.890,5.590E-002,5.400,1.100,0.000,0.000,0.000,0.000,6.500,No
! <People Internal Gains Nominal>,Name,Schedule Name,Zone Name,Zone Floor Area {m2},# Zone Occupants,Number of People {},People/Floor Area {person/m2},Floor Area per person {m2/person},Fraction Radiant,Fraction Convected,Sensible Fraction Calculation,Activity level,ASHRAE 55 Warnings,Carbon Dioxide Generation Rate,Minimum Number of People for All Day Types,Maximum Number of People for All Day Types,Minimum Number of People for Weekdays, Maximum Number of People for Weekdays, Minimum Number of People for Weekends/Holidays, Maximum Number of People for Weekends /Holidays,Minimum Number of People for Summer Design Days, Maximum Number of People for Summer Design Days,Minimum Number of People for Winter Design Days, Maximum Number of People for Winter Design Days
 People Internal Gains Nominal, STORAGE_11_PEOPLE,STORAGE_OCCUPANCY,STORAGE_11,10.25,1.0,1.0,9.755E-002,10.251,0.300,0.700,0.100,STORAGE_ACTIVITY,No,3.8200E-008,0.2,0.2,0.2,0.2,0.2,0.2,0.2,0.2,0.2,0.2,
 People Internal Gains Nominal, BREAK_ROOM_70_PEOPLE,BREAK_ROOM_OCCUPANCY,BREAK_ROOM_70,21.22,2.0,2.0,9.425E-002,10.610,0.300,0.700,0.100,BREAK_ROOM_ACTIVITY,No,3.8200E-008,0.4,0.4,0.4,0.4,0.4,0.4,0.4,0.4,0.4,0.4,
 People Internal Gains Nominal, STORAGE_85_PEOPLE,STORAGE_OCCUPANCY,STORAGE_85,17.89,1.0,1.0,5.590E-002,17.890,0.300,0.700,0.100,STORAGE_ACTIVITY,No,3.8200E-008,0.2,0.2,0.2,0.2,0.2,0.2,0.2,0.2,0.2,0.2,
! <Lights Internal Gains Nominal>,Name,Schedule Name,Zone Name,Zone Floor Area {m2},# Zone Occupants,Lighting Level {W},Lights/Floor Area {W/m2},Lights per person {W/person},Fraction Return Air,Fraction Radiant,Fraction Short Wave,Fraction Convected,Fraction Replaceable,End-Use, Minimum Lighting Level for All Day Types {W},Maximum Lighting Level for All Day Types {W},Minimum Lighting Level for Weekdays {W}, Maximum Lighting Level for Weekdays {W},Minimum Lighting Level for Weekends/Holidays {W}, Maximum Lighting Level for Weekends /Holidays {W},Minimum Lighting Level for Summer Design Days {W}, Maximum Lighting Level for Summer Design Days {W},Minimum Lighting Level for Winter Design Days {W}, Maximum Lighting Level for Winter Design Days {W}
 Lights Internal Gains Nominal, STORAGE_11_LIGHTS,STORAGE_LIGHTING,STORAGE_11,10.25,1.0,55.355,5.400,55.355,0.000,0.300,0.200,0.500,1.000,General,0.000,55.355,5.536,55.4,0.000,11.071,0.000,0.000,0.000,0.000
 Lights Internal Gains Nominal, BREAK_ROOM_70_LIGHTS,BREAK_ROOM_LIGHTING,BREAK_ROOM_70,21.22,2.0,171.878,8.100,85.939,0.000,0.300,0.200,0.500,1.000,General,0.000,171.878,17.188,171.9,0.000,34.376,0.000,0.000,0.000,0.000
 Lights Internal Gains Nominal, STORAGE_85_LIGHTS,STORAGE_LIGHTING,STORAGE_85,17.89,1.0,96.607,5.400,96.607,0.000,0.300,0.200,0.500,1.000,General,0.000,96.607,9.661,96.6,0.000,19.321,0.000,0.000,0.000,0.000
! <ElectricEquipment Internal Gains Nominal>,Name,Schedule Name,Zone Name,Zone Floor Area {m2},# Zone Occupants,Equipment Level {W},Equipment/Floor Area {W/m2},Equipment per person {W/person},Fraction Latent,Fraction Radiant,Fraction Lost,Fraction Convected,End-Use SubCategory,Minimum Equipment Level for All Day Types {W},Maximum Equipment Level for All Day Types {W},Minimum Equipment Level for Weekdays {W}, Maximum Equipment Level for Weekdays {W},Minimum Equipment Level for Weekends/Holidays {W}, Maximum Equipment Level for Weekends /Holidays {W},Minimum Equipment Level for Summer Design Days {W}, Maximum Equipment Level for Summer Design Days {W},Minimum Equipment Level for Winter Design Days {W}, Maximum Equipment Level for Winter Design Days {W}
 ElectricEquipment Internal Gains Nominal, STORAGE_11_EQUIPMENT,STORAGE_EQUIPMENT,STORAGE_11,10.25,1.0,11.276,1.100,11.276,0.100,0.200,0.000,0.700,General,0.000,9.021,3.383,9.021,0.000,3.383,0.000,0.000,0.000,0.000
 ElectricEquipment Internal Gains Nominal, BREAK_ROOM_70_EQUIPMENT,BREAK_ROOM_EQUIPMENT,BREAK_ROOM_70,21.22,2.0,318.293,15.000,159.147,0.100,0.200,0.000,0.700,General,0.000,254.634,95.488,254.634,0.000,95.488,0.000,0.000,0.000,0.000
 ElectricEquipment Internal Gains Nominal, STORAGE_85_EQUIPMENT,STORAGE_EQUIPMENT,STORAGE_85,17.89,1.0,19.679,1.100,19.679,0.100,0.200,0.000,0.700,General,0.000,15.743,5.904,15.743,0.000,5.904,0.000,0.000,0.000,0.000
! <Enclosure/Window Adjacency Daylighting Counts>, Enclosure Name, Number of Exterior Windows, Number of Exterior Windows in Adjacent Enclosures
Enclosure/Window Adjacency Daylighting Counts, BREAK_ROOM_70,4,0
! <Enclosure/Window Adjacency Daylighting Matrix>, Enclosure Name, Number of Adjacent Enclosures with Windows,Adjacent Enclosure Names - 1st 100 (max)
Enclosure/Window Adjacency Daylighting Matrix, BREAK_ROOM_70,0
! <ZoneInfiltration Airflow Stats Nominal>,Name,Schedule Name,Zone Name, Zone Floor Area {m2}, # Zone Occupants,Design Volume Flow Rate {m3/s},Volume Flow Rate/Floor Area {m3/s-m2},Volume Flow Rate/Exterior Surface Area {m3/s-m2},ACH - Air Changes per Hour,Equation A - Constant Term Coefficient {},Equation B - Temperature Term Coefficient {1/C},Equation C - Velocity Term Coefficient {s/m}, Equation D - Velocity Squared Term Coefficient {s2/m2}
 ZoneInfiltration Airflow Stats Nominal, STORAGE_11_INFILTRATION,STORAGE_11_INFILTRATION_SCHEDULE,STORAGE_11,10.25,1.0,0.000,0.000,0.000,0.000,0.000,0.000,0.000,0.000
 ZoneInfiltration Airflow Stats Nominal, BREAK_ROOM_70_INFILTRATION,BREAK_ROOM_70_INFILTRATION_SCHEDULE,BREAK_ROOM_70,21.22,2.0,0.000,0.000,0.000,0.000,0.000,0.000,0.000,0.000
 ZoneInfiltration Airflow Stats Nominal, STORAGE_85_INFILTRATION,STORAGE_85_INFILTRATION_SCHEDULE,STORAGE_85,17.89,1.0,0.000,0.000,0.000,0.000,0.000,0.000,0.000,0.000
! <AirFlow Model>, Simple
 AirFlow Model, Simple
! <RoomAir Model>, Zone Name, Mixing/Mundt/UCSDDV/UCSDCV/UCSDUFI/UCSDUFE/User Defined
RoomAir Model,STORAGE_11,Mixing/Well-Stirred
RoomAir Model,BREAK_ROOM_70,Mixing/Well-Stirred
RoomAir Model,STORAGE_85,Mixing/Well-Stirred
! <AirflowNetwork Model:Control>, No Multizone or Distribution/Multizone with Distribution/Multizone without Distribution/Multizone with Distribution only during Fan Operation
AirflowNetwork Model:Control,NoMultizoneOrDistribution
! <Zone Volume Capacitance Multiplier>, Sensible Heat Capacity Multiplier, Moisture Capacity Multiplier, Carbon Dioxide Capacity Multiplier, Generic Contaminant Capacity Multiplier
Zone Volume Capacitance Multiplier,   1.000 ,   1.000,   1.000,   1.000
! <Component Sizing Information>, Component Type, Component Name, Input Field Description, Value
 Component Sizing Information, AirTerminal:SingleDuct:VAV:Reheat, STORAGE_11_Z1_VAVTERMINAL, User-Specified Maximum Air Flow Rate [m3/s], 5.12542E-002
 Component Sizing Information, AirTerminal:SingleDuct:VAV:Reheat, STORAGE_11_Z1_VAVTERMINAL, Design Size Constant Minimum Air Flow Fraction, 0.20000
 Component Sizing Information, AirTerminal:SingleDuct:VAV:Reheat, STORAGE_11_Z1_VAVTERMINAL, User-Specified Constant Minimum Air Flow Fraction, 0.20000
 Component Sizing Information, AirTerminal:SingleDuct:VAV:Reheat, STORAGE_11_Z1_VAVTERMINAL, Design Size Minimum Air Flow Rate [m3/s], 1.02508E-002
 Component Sizing Information, AirTerminal:SingleDuct:VAV:Reheat, STORAGE_11_Z1_VAVTERMINAL, Design Size Maximum Flow per Zone Floor Area during Reheat [m3/s-m2], 9.99986E-004
 Component Sizing Information, AirTerminal:SingleDuct:VAV:Reheat, STORAGE_11_Z1_VAVTERMINAL, Design Size Maximum Flow Fraction during Reheat [], 0.20000
 Component Sizing Information, AirTerminal:SingleDuct:VAV:Reheat, STORAGE_11_Z1_VAVTERMINAL, User-Specified Maximum Reheat Water Flow Rate [m3/s], 0.82007
 Component Sizing Information, Coil:Heating:Electric, STORAGE_11_Z1_REHEATCOIL, User-Specified Nominal Capacity [W], 246.02038
 Component Sizing Information, AirTerminal:SingleDuct:VAV:Reheat, BREAK_ROOM_70_Z2_VAVTERMINAL, User-Specified Maximum Air Flow Rate [m3/s], 0.10610
 Component Sizing Information, AirTerminal:SingleDuct:VAV:Reheat, BREAK_ROOM_70_Z2_VAVTERMINAL, Design Size Constant Minimum Air Flow Fraction, 0.20000
 Component Sizing Information, AirTerminal:SingleDuct:VAV:Reheat, BREAK_ROOM_70_Z2_VAVTERMINAL, User-Specified Constant Minimum Air Flow Fraction, 0.20000
 Component Sizing Information, AirTerminal:SingleDuct:VAV:Reheat, BREAK_ROOM_70_Z2_VAVTERMINAL, Design Size Minimum Air Flow Rate [m3/s], 2.12199E-002
 Component Sizing Information, AirTerminal:SingleDuct:VAV:Reheat, BREAK_ROOM_70_Z2_VAVTERMINAL, Design Size Maximum Flow per Zone Floor Area during Reheat [m3/s-m2], 1.00002E-003
 Component Sizing Information, AirTerminal:SingleDuct:VAV:Reheat, BREAK_ROOM_70_Z2_VAVTERMINAL, Design Size Maximum Flow Fraction during Reheat [], 0.20000
 Component Sizing Information, AirTerminal:SingleDuct:VAV:Reheat, BREAK_ROOM_70_Z2_VAVTERMINAL, User-Specified Maximum Reheat Water Flow Rate [m3/s], 1.69759
 Component Sizing Information, Coil:Heating:Electric, BREAK_ROOM_70_Z2_REHEATCOIL, User-Specified Nominal Capacity [W], 509.27824
 Component Sizing Information, AirTerminal:SingleDuct:VAV:Reheat, STORAGE_85_Z3_VAVTERMINAL, User-Specified Maximum Air Flow Rate [m3/s], 8.94531E-002
 Component Sizing Information, AirTerminal:SingleDuct:VAV:Reheat, STORAGE_85_Z3_VAVTERMINAL, Design Size Constant Minimum Air Flow Fraction, 0.20000
 Component Sizing Information, AirTerminal:SingleDuct:VAV:Reheat, STORAGE_85_Z3_VAVTERMINAL, User-Specified Constant Minimum Air Flow Fraction, 0.20000
 Component Sizing Information, AirTerminal:SingleDuct:VAV:Reheat, STORAGE_85_Z3_VAVTERMINAL, Design Size Minimum Air Flow Rate [m3/s], 1.78906E-002
 Component Sizing Information, AirTerminal:SingleDuct:VAV:Reheat, STORAGE_85_Z3_VAVTERMINAL, Design Size Maximum Flow per Zone Floor Area during Reheat [m3/s-m2], 1.00002E-003
 Component Sizing Information, AirTerminal:SingleDuct:VAV:Reheat, STORAGE_85_Z3_VAVTERMINAL, Design Size Maximum Flow Fraction during Reheat [], 0.20000
 Component Sizing Information, AirTerminal:SingleDuct:VAV:Reheat, STORAGE_85_Z3_VAVTERMINAL, User-Specified Maximum Reheat Water Flow Rate [m3/s], 1.43125
 Component Sizing Information, Coil:Heating:Electric, STORAGE_85_Z3_REHEATCOIL, User-Specified Nominal Capacity [W], 429.37497
 Component Sizing Information, Coil:Cooling:DX:SingleSpeed, STORAGE_11_Z1_COOLINGCOILDX, User-Specified Rated Air Flow Rate [m3/s], 5.12542E-002
 Component Sizing Information, Coil:Cooling:DX:SingleSpeed, STORAGE_11_Z1_COOLINGCOILDX, User-Specified Gross Rated Total Cooling Capacity [W], 1025.08491
 Component Sizing Information, Coil:Cooling:DX:SingleSpeed, STORAGE_11_Z1_COOLINGCOILDX, User-Specified Gross Rated Sensible Heat Ratio, 0.75000
! <DX Cooling Coil Standard Rating Information>, Component Type, Component Name, Standard Rating (Net) Cooling Capacity {W}, Standard Rating Net COP {W/W}, EER {Btu/W-h}, SEER User {Btu/W-h}, SEER Standard {Btu/W-h}, IEER {Btu/W-h}
 DX Cooling Coil Standard Rating Information, Coil:Cooling:DX:SingleSpeed, STORAGE_11_Z1_COOLINGCOILDX, 985.3, 39.98, 136.43, 54.18, 51.26, 37.2
! <DX Cooling Coil AHRI 2023 Standard Rating Information>, Component Type, Component Name, Standard Rating (Net) Cooling Capacity {W}, Standard Rating Net COP2 {W/W}, EER2 {Btu/W-h}, SEER2 User {Btu/W-h}, SEER2 Standard {Btu/W-h}, IEER 2022 {Btu/W-h}
 DX Cooling Coil AHRI 2023 Standard Rating Information, Coil:Cooling:DX:SingleSpeed, STORAGE_11_Z1_COOLINGCOILDX, 985.3, 39.98, 136.43, 54.18, 52.72, 37.2
 Component Sizing Information, Coil:Heating:Electric, STORAGE_11_Z1_HEATINGCOIL, User-Specified Nominal Capacity [W], 820.06793
 Component Sizing Information, Fan:VariableVolume, STORAGE_11_Z1_SUPPLYFAN, User-Specified Maximum Flow Rate [m3/s], 5.12542E-002
 Component Sizing Information, Fan:VariableVolume, STORAGE_11_Z1_SUPPLYFAN, Design Electric Power Consumption [W], 43.93221
 Component Sizing Information, Coil:Cooling:DX:SingleSpeed, BREAK_ROOM_70_Z2_COOLINGCOILDX, User-Specified Rated Air Flow Rate [m3/s], 0.10610
 Component Sizing Information, Coil:Cooling:DX:SingleSpeed, BREAK_ROOM_70_Z2_COOLINGCOILDX, User-Specified Gross Rated Total Cooling Capacity [W], 2121.99266
 Component Sizing Information, Coil:Cooling:DX:SingleSpeed, BREAK_ROOM_70_Z2_COOLINGCOILDX, User-Specified Gross Rated Sensible Heat Ratio, 0.75000
 DX Cooling Coil Standard Rating Information, Coil:Cooling:DX:SingleSpeed, BREAK_ROOM_70_Z2_COOLINGCOILDX, 2039.6, 39.98, 136.43, 54.18, 51.26, 37.2
 DX Cooling Coil AHRI 2023 Standard Rating Information, Coil:Cooling:DX:SingleSpeed, BREAK_ROOM_70_Z2_COOLINGCOILDX, 2039.6, 39.98, 136.43, 54.18, 52.72, 37.2
 Component Sizing Information, Coil:Heating:Electric, BREAK_ROOM_70_Z2_HEATINGCOIL, User-Specified Nominal Capacity [W], 1697.59413
 Component Sizing Information, Fan:VariableVolume, BREAK_ROOM_70_Z2_SUPPLYFAN, User-Specified Maximum Flow Rate [m3/s], 0.10610
 Component Sizing Information, Fan:VariableVolume, BREAK_ROOM_70_Z2_SUPPLYFAN, Design Electric Power Consumption [W], 90.94254
 Component Sizing Information, Coil:Cooling:DX:SingleSpeed, STORAGE_85_Z3_COOLINGCOILDX, User-Specified Rated Air Flow Rate [m3/s], 8.94531E-002
 Component Sizing Information, Coil:Cooling:DX:SingleSpeed, STORAGE_85_Z3_COOLINGCOILDX, User-Specified Gross Rated Total Cooling Capacity [W], 1789.06236
 Component Sizing Information, Coil:Cooling:DX:SingleSpeed, STORAGE_85_Z3_COOLINGCOILDX, User-Specified Gross Rated Sensible Heat Ratio, 0.75000
 DX Cooling Coil Standard Rating Information, Coil:Cooling:DX:SingleSpeed, STORAGE_85_Z3_COOLINGCOILDX, 1719.6, 39.98, 136.43, 54.18, 51.26, 37.2
 DX Cooling Coil AHRI 2023 Standard Rating Information, Coil:Cooling:DX:SingleSpeed, STORAGE_85_Z3_COOLINGCOILDX, 1719.6, 39.98, 136.43, 54.18, 52.72, 37.2
 Component Sizing Information, Coil:Heating:Electric, STORAGE_85_Z3_HEATINGCOIL, User-Specified Nominal Capacity [W], 1431.24989
 Component Sizing Information, Fan:VariableVolume, STORAGE_85_Z3_SUPPLYFAN, User-Specified Maximum Flow Rate [m3/s], 8.94531E-002
 Component Sizing Information, Fan:VariableVolume, STORAGE_85_Z3_SUPPLYFAN, Design Electric Power Consumption [W], 76.67410
! <Environment>,Environment Name,Environment Type, Start Date, End Date, Start DayOfWeek, Duration {#days}, Source:Start DayOfWeek,  Use Daylight Saving, Use Holidays, Apply Weekend Holiday Rule,  Use Rain Values, Use Snow Values, Sky Temperature Model
! <Environment:Special Days>, Special Day Name, Special Day Type, Source, Start Date, Duration {#days}
! <Environment:Daylight Saving>, Daylight Saving Indicator, Source, Start Date, End Date
! <Environment:WarmupDays>, NumberofWarmupDays
Environment,YEAR ROUND RUN PERIOD,WeatherFileRunPeriod,01/01/2017,12/31/2017,Sunday,365,Use RunPeriod Specified Day,Yes,Yes,Yes,Yes,Yes,Clark and Allen
Environment:Daylight Saving,No,
! <Sky Daylight Factors>, Sky Type, MonthAndDay, Daylighting Control Name, Enclosure Name, Window Name, Reference Point, Daylight Factor
 Sky Daylight Factors,Clear Sky,01/01,BREAK_ROOM_70_DAYLIGHT,BREAK_ROOM_70,BREAK_ROOM_70_WINDOW_1,BREAK_ROOM_70_REFERENCEPOINT1,1.0086E-002
 Sky Daylight Factors,Clear Turbid Sky,01/01,BREAK_ROOM_70_DAYLIGHT,BREAK_ROOM_70,BREAK_ROOM_70_WINDOW_1,BREAK_ROOM_70_REFERENCEPOINT1,1.1226E-002
 Sky Daylight Factors,Intermediate Sky,01/01,BREAK_ROOM_70_DAYLIGHT,BREAK_ROOM_70,BREAK_ROOM_70_WINDOW_1,BREAK_ROOM_70_REFERENCEPOINT1,7.1770E-003
 Sky Daylight Factors,Overcast Sky,01/01,BREAK_ROOM_70_DAYLIGHT,BREAK_ROOM_70,BREAK_ROOM_70_WINDOW_1,BREAK_ROOM_70_REFERENCEPOINT1,3.7593E-003
 Sky Daylight Factors,Clear Sky,01/01,BREAK_ROOM_70_DAYLIGHT,BREAK_ROOM_70,BREAK_ROOM_70_WINDOW_2,BREAK_ROOM_70_REFERENCEPOINT1,7.0872E-003
 Sky Daylight Factors,Clear Turbid Sky,01/01,BREAK_ROOM_70_DAYLIGHT,BREAK_ROOM_70,BREAK_ROOM_70_WINDOW_2,BREAK_ROOM_70_REFERENCEPOINT1,6.6408E-003
 Sky Daylight Factors,Intermediate Sky,01/01,BREAK_ROOM_70_DAYLIGHT,BREAK_ROOM_70,BREAK_ROOM_70_WINDOW_2,BREAK_ROOM_70_REFERENCEPOINT1,6.6884E-003
 Sky Daylight Factors,Overcast Sky,01/01,BREAK_ROOM_70_DAYLIGHT,BREAK_ROOM_70,BREAK_ROOM_70_WINDOW_2,BREAK_ROOM_70_REFERENCEPOINT1,5.7803E-003
 Sky Daylight Factors,Clear Sky,01/01,BREAK_ROOM_70_DAYLIGHT,BREAK_ROOM_70,BREAK_ROOM_70_WINDOW_3,BREAK_ROOM_70_REFERENCEPOINT1,7.2285E-003
 Sky Daylight Factors,Clear Turbid Sky,01/01,BREAK_ROOM_70_DAYLIGHT,BREAK_ROOM_70,BREAK_ROOM_70_WINDOW_3,BREAK_ROOM_70_REFERENCEPOINT1,5.8892E-003
 Sky Daylight Factors,Intermediate Sky,01/01,BREAK_ROOM_70_DAYLIGHT,BREAK_ROOM_70,BREAK_ROOM_70_WINDOW_3,BREAK_ROOM_70_REFERENCEPOINT1,5.2859E-003
 Sky Daylight Factors,Overcast Sky,01/01,BREAK_ROOM_70_DAYLIGHT,BREAK_ROOM_70,BREAK_ROOM_70_WINDOW_3,BREAK_ROOM_70_REFERENCEPOINT1,7.2953E-003
 Sky Daylight Factors,Clear Sky,01/01,BREAK_ROOM_70_DAYLIGHT,BREAK_ROOM_70,BREAK_ROOM_70_WINDOW_4,BREAK_ROOM_70_REFERENCEPOINT1,7.1261E-003
 Sky Daylight Factors,Clear Turbid Sky,01/01,BREAK_ROOM_70_DAYLIGHT,BREAK_ROOM_70,BREAK_ROOM_70_WINDOW_4,BREAK_ROOM_70_REFERENCEPOINT1,6.6899E-003
 Sky Daylight Factors,Intermediate Sky,01/01,BREAK_ROOM_70_DAYLIGHT,BREAK_ROOM_70,BREAK_ROOM_70_WINDOW_4,BREAK_ROOM_70_REFERENCEPOINT1,6.7177E-003
 Sky Daylight Factors,Overcast Sky,01/01,BREAK_ROOM_70_DAYLIGHT,BREAK_ROOM_70,BREAK_ROOM_70_WINDOW_4,BREAK_ROOM_70_REFERENCEPOINT1,5.7803E-003
Environment:WarmupDays,  6
! <Warmup Convergence Information>,Zone Name,Environment Type/Name,Average Warmup Temperature Difference {deltaC},Std Dev Warmup Temperature Difference {deltaC},Max Temperature Pass/Fail Convergence,Min Temperature Pass/Fail Convergence,Average Warmup Load Difference {W},Std Dev Warmup Load Difference {W},Heating Load Pass/Fail Convergence,Cooling Load Pass/Fail Convergence
 Warmup Convergence Information,STORAGE_11,RunPeriod: YEAR ROUND RUN PERIOD,0.2223725791,0.2383652570,Pass,Pass,1.6669967532E-002,1.8464856186E-002,Pass,Pass
 Warmup Convergence Information,BREAK_ROOM_70,RunPeriod: YEAR ROUND RUN PERIOD,0.1641804281,0.1760904433,Pass,Pass,1.3216928584E-002,1.4428455511E-002,Pass,Pass
 Warmup Convergence Information,STORAGE_85,RunPeriod: YEAR ROUND RUN PERIOD,0.1788398606,0.1928924533,Pass,Pass,1.2874446936E-002,1.4196481504E-002,Pass,Pass
! <Program Control Information:Threads/Parallel Sims>, Threading Supported,Maximum Number of Threads, Env Set Threads (OMP_NUM_THREADS), EP Env Set Threads (EP_OMP_NUM_THREADS), IDF Set Threads, Number of Threads Used (Interior Radiant Exchange), Number Nominal Surfaces, Number Parallel Sims
Program Control:Threads/Parallel Sims, No,1, N/A, N/A, N/A, N/A, N/A, N/A
End of Data
