Program Version,EnergyPlus, Version 24.2.0-94a887817b, YMD=2025.11.02 09:28
! This file shows details about the branches, nodes, and other
! elements of the flow connections.
! This file is intended for use in "debugging" potential problems
! that may also be detected by the program, but may be more easily
! identified by "eye".
! This file is also intended to support software which draws a
! schematic diagram of the HVAC system.
! ===============================================================
! #Nodes,<Number of Unique Nodes>
 #Nodes,33
! <Node>,<NodeNumber>,<Node Name>,<Node Fluid Type>,<# Times Node Referenced After Definition>
 Node,1,STORAGE_11_Z1_ADUOUTLET,Air,4
 Node,2,BREAK_ROOM_70_Z2_ADUOUTLET,Air,4
 Node,3,STORAGE_85_Z3_ADUOUTLET,Air,4
 Node,4,STORAGE_11_Z1_SUPPLYINLET,Air,3
 Node,5,STORAGE_11_Z1_COOLC-HEATCNODE,Air,6
 Node,6,STORAGE_11_Z1_HEATC-FANNODE,Air,5
 Node,7,STORAGE_11_Z1_SUPPLYEQUIPMENTOUTLETNODE,Air,3
 Node,8,BREAK_ROOM_70_Z2_SUPPLYINLET,Air,3
 Node,9,BREAK_ROOM_70_Z2_COOLC-HEATCNODE,Air,6
 Node,10,BREAK_ROOM_70_Z2_HEATC-FANNODE,Air,5
 Node,11,BREAK_ROOM_70_Z2_SUPPLYEQUIPMENTOUTLETNODE,Air,3
 Node,12,STORAGE_85_Z3_SUPPLYINLET,Air,3
 Node,13,STORAGE_85_Z3_COOLC-HEATCNODE,Air,6
 Node,14,STORAGE_85_Z3_HEATC-FANNODE,Air,5
 Node,15,STORAGE_85_Z3_SUPPLYEQUIPMENTOUTLETNODE,Air,3
 Node,16,STORAGE_11 AIR NODE,Air,0
 Node,17,STORAGE_11_Z1_RETURNAIR,Air,1
 Node,18,BREAK_ROOM_70 AIR NODE,Air,0
 Node,19,BREAK_ROOM_70_Z2_RETURNAIR,Air,1
 Node,20,STORAGE_85 AIR NODE,Air,0
 Node,21,STORAGE_85_Z3_RETURNAIR,Air,1
 Node,22,STORAGE_11_Z1_ZONEEQUIPMENTINLET,Air,2
 Node,23,BREAK_ROOM_70_Z2_ZONEEQUIPMENTINLET,Air,2
 Node,24,STORAGE_85_Z3_ZONEEQUIPMENTINLET,Air,2
 Node,25,STORAGE_11_Z1_ZONEEQUIPMENTOUTLETNODE,Air,2
 Node,26,BREAK_ROOM_70_Z2_ZONEEQUIPMENTOUTLETNODE,Air,2
 Node,27,STORAGE_85_Z3_ZONEEQUIPMENTOUTLETNODE,Air,2
 Node,28,STORAGE_11_Z1_TERMINALINLET,Air,1
 Node,29,BREAK_ROOM_70_Z2_TERMINALINLET,Air,1
 Node,30,STORAGE_85_Z3_TERMINALINLET,Air,1
 Node,31,STORAGE_11_Z1_TERMINALOUTLET,Air,1
 Node,32,BREAK_ROOM_70_Z2_TERMINALOUTLET,Air,1
 Node,33,STORAGE_85_Z3_TERMINALOUTLET,Air,1
! ===============================================================
! Suspicious nodes have 0 references.  It is normal for some nodes, however.
! Listing nodes with 0 references (culled from previous list):
! <Suspicious Node>,<NodeNumber>,<Node Name>,<Node Fluid Type>,<# Times Node Referenced After Definition>
 Suspicious Node,16,STORAGE_11 AIR NODE,Air,0
 Suspicious Node,18,BREAK_ROOM_70 AIR NODE,Air,0
 Suspicious Node,20,STORAGE_85 AIR NODE,Air,0
! ===============================================================
! <#Branch Lists>,<Number of Branch Lists>
 #Branch Lists,3
! <Branch List>,<Branch List Count>,<Branch List Name>,<Loop Name>,<Loop Type>,<Number of Branches>
! <Branch>,<Branch Count>,<Branch Name>,<Loop Name>,<Loop Type>,<Branch Inlet Node Name>,<Branch Outlet Node Name>
 Branch List,1,STORAGE_11_Z1_BRANCHLIST,STORAGE_11_Z1_AIRLOOP,Air,1
   Branch,1,STORAGE_11_Z1_MAINBRANCH,STORAGE_11_Z1_AIRLOOP,Air,STORAGE_11_Z1_SUPPLYINLET,STORAGE_11_Z1_SUPPLYEQUIPMENTOUTLETNODE
 Branch List,2,BREAK_ROOM_70_Z2_BRANCHLIST,BREAK_ROOM_70_Z2_AIRLOOP,Air,1
   Branch,1,BREAK_ROOM_70_Z2_MAINBRANCH,BREAK_ROOM_70_Z2_AIRLOOP,Air,BREAK_ROOM_70_Z2_SUPPLYINLET,BREAK_ROOM_70_Z2_SUPPLYEQUIPMENTOUTLETNODE
 Branch List,3,STORAGE_85_Z3_BRANCHLIST,STORAGE_85_Z3_AIRLOOP,Air,1
   Branch,1,STORAGE_85_Z3_MAINBRANCH,STORAGE_85_Z3_AIRLOOP,Air,STORAGE_85_Z3_SUPPLYINLET,STORAGE_85_Z3_SUPPLYEQUIPMENTOUTLETNODE
! ===============================================================
! <#Supply Air Paths>,<Number of Supply Air Paths>
 #Supply Air Paths,3
! <Supply Air Path>,<Supply Air Path Count>,<Supply Air Path Name>,<AirLoopHVAC Name>
! <#Components on Supply Air Path>,<Number of Components>
! <Supply Air Path Component>,<Component Count>,<Component Type>,<Component Name>,<AirLoopHVAC Name>
! <#Outlet Nodes on Supply Air Path Component>,<Number of Nodes>
! <Supply Air Path Component Nodes>,<Node Count>,<Component Type>,<Component Name>,<Inlet Node Name>,<Outlet Node Name>,<AirLoopHVAC Name>
 Supply Air Path,1,STORAGE_11_Z1,STORAGE_11_Z1_AIRLOOP
   #Components on Supply Air Path,1
   Supply Air Path Component,1,AIRLOOPHVAC:ZONESPLITTER,STORAGE_11_Z1_SUPPLYSPLITTER,STORAGE_11_Z1_AIRLOOP
     #Outlet Nodes on Supply Air Path Component,1
     Supply Air Path Component Nodes,1,AIRLOOPHVAC:ZONESPLITTER,STORAGE_11_Z1_SUPPLYSPLITTER,STORAGE_11_Z1_ZONEEQUIPMENTINLET,STORAGE_11_Z1_TERMINALINLET,STORAGE_11_Z1_AIRLOOP
! <#Nodes on Supply Air Path>,<Number of Nodes>
! <Supply Air Path Node>,<Node Type>,<Node Count>,<Node Name>,<AirLoopHVAC Name>
#Nodes on Supply Air Path,2
   Supply Air Path Node,Inlet Node,1,STORAGE_11_Z1_ZONEEQUIPMENTINLET,STORAGE_11_Z1_AIRLOOP
   Supply Air Path Node,Outlet Node,2,STORAGE_11_Z1_TERMINALINLET,STORAGE_11_Z1_AIRLOOP
 Supply Air Path,2,BREAK_ROOM_70_Z2,BREAK_ROOM_70_Z2_AIRLOOP
   #Components on Supply Air Path,1
   Supply Air Path Component,1,AIRLOOPHVAC:ZONESPLITTER,BREAK_ROOM_70_Z2_SUPPLYSPLITTER,BREAK_ROOM_70_Z2_AIRLOOP
     #Outlet Nodes on Supply Air Path Component,1
     Supply Air Path Component Nodes,1,AIRLOOPHVAC:ZONESPLITTER,BREAK_ROOM_70_Z2_SUPPLYSPLITTER,BREAK_ROOM_70_Z2_ZONEEQUIPMENTINLET,BREAK_ROOM_70_Z2_TERMINALINLET,BREAK_ROOM_70_Z2_AIRLOOP
! <#Nodes on Supply Air Path>,<Number of Nodes>
! <Supply Air Path Node>,<Node Type>,<Node Count>,<Node Name>,<AirLoopHVAC Name>
#Nodes on Supply Air Path,2
   Supply Air Path Node,Inlet Node,1,BREAK_ROOM_70_Z2_ZONEEQUIPMENTINLET,BREAK_ROOM_70_Z2_AIRLOOP
   Supply Air Path Node,Outlet Node,2,BREAK_ROOM_70_Z2_TERMINALINLET,BREAK_ROOM_70_Z2_AIRLOOP
 Supply Air Path,3,STORAGE_85_Z3,STORAGE_85_Z3_AIRLOOP
   #Components on Supply Air Path,1
   Supply Air Path Component,1,AIRLOOPHVAC:ZONESPLITTER,STORAGE_85_Z3_SUPPLYSPLITTER,STORAGE_85_Z3_AIRLOOP
     #Outlet Nodes on Supply Air Path Component,1
     Supply Air Path Component Nodes,1,AIRLOOPHVAC:ZONESPLITTER,STORAGE_85_Z3_SUPPLYSPLITTER,STORAGE_85_Z3_ZONEEQUIPMENTINLET,STORAGE_85_Z3_TERMINALINLET,STORAGE_85_Z3_AIRLOOP
! <#Nodes on Supply Air Path>,<Number of Nodes>
! <Supply Air Path Node>,<Node Type>,<Node Count>,<Node Name>,<AirLoopHVAC Name>
#Nodes on Supply Air Path,2
   Supply Air Path Node,Inlet Node,1,STORAGE_85_Z3_ZONEEQUIPMENTINLET,STORAGE_85_Z3_AIRLOOP
   Supply Air Path Node,Outlet Node,2,STORAGE_85_Z3_TERMINALINLET,STORAGE_85_Z3_AIRLOOP
! ===============================================================
! <#Return Air Paths>,<Number of Return Air Paths>
 #Return Air Paths,3
! <Return Air Path>,<Return Air Path Count>,<Return Air Path Name>,<AirLoopHVAC Name>
! <#Components on Return Air Path>,<Number of Components>
! <Return Air Path Component>,<Component Count>,<Component Type>,<Component Name>,<AirLoopHVAC Name>
! <#Inlet Nodes on Return Air Path Component>,<Number of Nodes>
! <Return Air Path Component Nodes>,<Node Count>,<Component Type>,<Component Name>,<Inlet Node Name>,<Outlet Node Name>,<AirLoopHVAC Name>
 Return Air Path,1,STORAGE_11_Z1_RETURNAIRPATH,STORAGE_11_Z1_AIRLOOP
   #Components on Return Air Path,1
   Return Air Path Component,1,AIRLOOPHVAC:ZONEMIXER,STORAGE_11_Z1_RETURNAIRMIXER,STORAGE_11_Z1_AIRLOOP
     #Inlet Nodes on Return Air Path Component,1
     Return Air Path Component Nodes,1,AIRLOOPHVAC:ZONEMIXER,STORAGE_11_Z1_RETURNAIRMIXER,STORAGE_11_Z1_RETURNAIR,STORAGE_11_Z1_ZONEEQUIPMENTOUTLETNODE,STORAGE_11_Z1_AIRLOOP
! <#Nodes on Return Air Path>,<Number of Nodes>
! <Return Air Path Node>,<Node Type>,<Node Count>,<Node Name>,<AirLoopHVAC Name>
   #Nodes on Return Air Path,2
   Return Air Path Node,Outlet Node,1,STORAGE_11_Z1_ZONEEQUIPMENTOUTLETNODE,STORAGE_11_Z1_AIRLOOP
   Return Air Path Node,Inlet Node,2,STORAGE_11_Z1_RETURNAIR,STORAGE_11_Z1_AIRLOOP
 Return Air Path,2,BREAK_ROOM_70_Z2_RETURNAIRPATH,BREAK_ROOM_70_Z2_AIRLOOP
   #Components on Return Air Path,1
   Return Air Path Component,1,AIRLOOPHVAC:ZONEMIXER,BREAK_ROOM_70_Z2_RETURNAIRMIXER,BREAK_ROOM_70_Z2_AIRLOOP
     #Inlet Nodes on Return Air Path Component,1
     Return Air Path Component Nodes,1,AIRLOOPHVAC:ZONEMIXER,BREAK_ROOM_70_Z2_RETURNAIRMIXER,BREAK_ROOM_70_Z2_RETURNAIR,BREAK_ROOM_70_Z2_ZONEEQUIPMENTOUTLETNODE,BREAK_ROOM_70_Z2_AIRLOOP
! <#Nodes on Return Air Path>,<Number of Nodes>
! <Return Air Path Node>,<Node Type>,<Node Count>,<Node Name>,<AirLoopHVAC Name>
   #Nodes on Return Air Path,2
   Return Air Path Node,Outlet Node,1,BREAK_ROOM_70_Z2_ZONEEQUIPMENTOUTLETNODE,BREAK_ROOM_70_Z2_AIRLOOP
   Return Air Path Node,Inlet Node,2,BREAK_ROOM_70_Z2_RETURNAIR,BREAK_ROOM_70_Z2_AIRLOOP
 Return Air Path,3,STORAGE_85_Z3_RETURNAIRPATH,STORAGE_85_Z3_AIRLOOP
   #Components on Return Air Path,1
   Return Air Path Component,1,AIRLOOPHVAC:ZONEMIXER,STORAGE_85_Z3_RETURNAIRMIXER,STORAGE_85_Z3_AIRLOOP
     #Inlet Nodes on Return Air Path Component,1
     Return Air Path Component Nodes,1,AIRLOOPHVAC:ZONEMIXER,STORAGE_85_Z3_RETURNAIRMIXER,STORAGE_85_Z3_RETURNAIR,STORAGE_85_Z3_ZONEEQUIPMENTOUTLETNODE,STORAGE_85_Z3_AIRLOOP
! <#Nodes on Return Air Path>,<Number of Nodes>
! <Return Air Path Node>,<Node Type>,<Node Count>,<Node Name>,<AirLoopHVAC Name>
   #Nodes on Return Air Path,2
   Return Air Path Node,Outlet Node,1,STORAGE_85_Z3_ZONEEQUIPMENTOUTLETNODE,STORAGE_85_Z3_AIRLOOP
   Return Air Path Node,Inlet Node,2,STORAGE_85_Z3_RETURNAIR,STORAGE_85_Z3_AIRLOOP
! ===============================================================
! #Outdoor Air Nodes,<Number of Outdoor Air Nodes>
 #Outdoor Air Nodes,0
! ===============================================================
! <#Component Sets>,<Number of Component Sets>
 #Component Sets,18
! <Component Set>,<Component Set Count>,<Parent Object Type>,<Parent Object Name>,<Component Type>,<Component Name>,<Inlet Node ID>,<Outlet Node ID>,<Description>
 Component Set,1,BRANCH,STORAGE_11_Z1_MAINBRANCH,COILSYSTEM:COOLING:DX,STORAGE_11_Z1_COOLINGCOIL,STORAGE_11_Z1_SUPPLYINLET,STORAGE_11_Z1_COOLC-HEATCNODE,Air Nodes
 Component Set,2,BRANCH,STORAGE_11_Z1_MAINBRANCH,COIL:HEATING:ELECTRIC,STORAGE_11_Z1_HEATINGCOIL,STORAGE_11_Z1_COOLC-HEATCNODE,STORAGE_11_Z1_HEATC-FANNODE,Air Nodes
 Component Set,3,BRANCH,STORAGE_11_Z1_MAINBRANCH,FAN:VARIABLEVOLUME,STORAGE_11_Z1_SUPPLYFAN,STORAGE_11_Z1_HEATC-FANNODE,STORAGE_11_Z1_SUPPLYEQUIPMENTOUTLETNODE,Air Nodes
 Component Set,4,BRANCH,BREAK_ROOM_70_Z2_MAINBRANCH,COILSYSTEM:COOLING:DX,BREAK_ROOM_70_Z2_COOLINGCOIL,BREAK_ROOM_70_Z2_SUPPLYINLET,BREAK_ROOM_70_Z2_COOLC-HEATCNODE,Air Nodes
 Component Set,5,BRANCH,BREAK_ROOM_70_Z2_MAINBRANCH,COIL:HEATING:ELECTRIC,BREAK_ROOM_70_Z2_HEATINGCOIL,BREAK_ROOM_70_Z2_COOLC-HEATCNODE,BREAK_ROOM_70_Z2_HEATC-FANNODE,Air Nodes
 Component Set,6,BRANCH,BREAK_ROOM_70_Z2_MAINBRANCH,FAN:VARIABLEVOLUME,BREAK_ROOM_70_Z2_SUPPLYFAN,BREAK_ROOM_70_Z2_HEATC-FANNODE,BREAK_ROOM_70_Z2_SUPPLYEQUIPMENTOUTLETNODE,Air Nodes
 Component Set,7,BRANCH,STORAGE_85_Z3_MAINBRANCH,COILSYSTEM:COOLING:DX,STORAGE_85_Z3_COOLINGCOIL,STORAGE_85_Z3_SUPPLYINLET,STORAGE_85_Z3_COOLC-HEATCNODE,Air Nodes
 Component Set,8,BRANCH,STORAGE_85_Z3_MAINBRANCH,COIL:HEATING:ELECTRIC,STORAGE_85_Z3_HEATINGCOIL,STORAGE_85_Z3_COOLC-HEATCNODE,STORAGE_85_Z3_HEATC-FANNODE,Air Nodes
 Component Set,9,BRANCH,STORAGE_85_Z3_MAINBRANCH,FAN:VARIABLEVOLUME,STORAGE_85_Z3_SUPPLYFAN,STORAGE_85_Z3_HEATC-FANNODE,STORAGE_85_Z3_SUPPLYEQUIPMENTOUTLETNODE,Air Nodes
 Component Set,10,ZONEHVAC:AIRDISTRIBUTIONUNIT,STORAGE_11_Z1_ADU,AIRTERMINAL:SINGLEDUCT:VAV:REHEAT,STORAGE_11_Z1_VAVTERMINAL,STORAGE_11_Z1_TERMINALINLET,STORAGE_11_Z1_ADUOUTLET,Air Nodes
 Component Set,11,ZONEHVAC:AIRDISTRIBUTIONUNIT,BREAK_ROOM_70_Z2_ADU,AIRTERMINAL:SINGLEDUCT:VAV:REHEAT,BREAK_ROOM_70_Z2_VAVTERMINAL,BREAK_ROOM_70_Z2_TERMINALINLET,BREAK_ROOM_70_Z2_ADUOUTLET,Air Nodes
 Component Set,12,ZONEHVAC:AIRDISTRIBUTIONUNIT,STORAGE_85_Z3_ADU,AIRTERMINAL:SINGLEDUCT:VAV:REHEAT,STORAGE_85_Z3_VAVTERMINAL,STORAGE_85_Z3_TERMINALINLET,STORAGE_85_Z3_ADUOUTLET,Air Nodes
 Component Set,13,AIRTERMINAL:SINGLEDUCT:VAV:REHEAT,STORAGE_11_Z1_VAVTERMINAL,COIL:HEATING:ELECTRIC,STORAGE_11_Z1_REHEATCOIL,STORAGE_11_Z1_TERMINALOUTLET,STORAGE_11_Z1_ADUOUTLET,Air Nodes
 Component Set,14,AIRTERMINAL:SINGLEDUCT:VAV:REHEAT,BREAK_ROOM_70_Z2_VAVTERMINAL,COIL:HEATING:ELECTRIC,BREAK_ROOM_70_Z2_REHEATCOIL,BREAK_ROOM_70_Z2_TERMINALOUTLET,BREAK_ROOM_70_Z2_ADUOUTLET,Air Nodes
 Component Set,15,AIRTERMINAL:SINGLEDUCT:VAV:REHEAT,STORAGE_85_Z3_VAVTERMINAL,COIL:HEATING:ELECTRIC,STORAGE_85_Z3_REHEATCOIL,STORAGE_85_Z3_TERMINALOUTLET,STORAGE_85_Z3_ADUOUTLET,Air Nodes
 Component Set,16,COILSYSTEM:COOLING:DX,STORAGE_11_Z1_COOLINGCOIL,COIL:COOLING:DX:SINGLESPEED,STORAGE_11_Z1_COOLINGCOILDX,STORAGE_11_Z1_SUPPLYINLET,STORAGE_11_Z1_COOLC-HEATCNODE,Air Nodes
 Component Set,17,COILSYSTEM:COOLING:DX,BREAK_ROOM_70_Z2_COOLINGCOIL,COIL:COOLING:DX:SINGLESPEED,BREAK_ROOM_70_Z2_COOLINGCOILDX,BREAK_ROOM_70_Z2_SUPPLYINLET,BREAK_ROOM_70_Z2_COOLC-HEATCNODE,Air Nodes
 Component Set,18,COILSYSTEM:COOLING:DX,STORAGE_85_Z3_COOLINGCOIL,COIL:COOLING:DX:SINGLESPEED,STORAGE_85_Z3_COOLINGCOILDX,STORAGE_85_Z3_SUPPLYINLET,STORAGE_85_Z3_COOLC-HEATCNODE,Air Nodes
! ===============================================================
! <# Plant Loops>,<Number of Plant Loops>
 #Plant Loops,0
! <Plant Loop>,<Plant Loop Name>,<Loop Type>,<Inlet Node Name>,<Outlet Node Name>,<Branch List>,<Connector List>
! <Plant Loop Connector>,<Connector Type>,<Connector Name>,<Loop Name>,<Loop Type>,<Number of Inlets/Outlets>
! <Plant Loop Connector Branches>,<Connector Node Count>,<Connector Type>,<Connector Name>,<Inlet Branch>,<Outlet Branch>,<Loop Name>,<Loop Type>
! <Plant Loop Connector Nodes>,<Connector Node Count>,<Connector Type>,<Connector Name>,<Inlet Node>,<Outlet Node>,<Loop Name>,<Loop Type>
! <Plant Loop Supply Connection>,<Plant Loop Name>,<Supply Side Outlet Node Name>,<Demand Side Inlet Node Name>
! <Plant Loop Return Connection>,<Plant Loop Name>,<Demand Side Outlet Node Name>,<Supply Side Inlet Node Name>
! ===============================================================
! <# Condenser Loops>,<Number of Condenser Loops>
 #Condenser Loops,0
! <Condenser Loop>,<Condenser Loop Name>,<Loop Type>,<Inlet Node Name>,<Outlet Node Name>,<Branch List>,<Connector List>
! <Condenser Loop Connector>,<Connector Type>,<Connector Name>,<Loop Name>,<Loop Type>,<Number of Inlets/Outlets>
! <Condenser Loop Connector Branches>,<Connector Node Count>,<Connector Type>,<Connector Name>,<Inlet Branch>,<Outlet Branch>,<Loop Name>,<Loop Type>
! <Condenser Loop Connector Nodes>,<Connector Node Count>,<Connector Type>,<Connector Name>,<Inlet Node>,<Outlet Node>,<Loop Name>,<Loop Type>
! <Condenser Loop Supply Connection>,<Condenser Loop Name>,<Supply Side Outlet Node Name>,<Demand Side Inlet Node Name>
! <Condenser Loop Return Connection>,<Condenser Loop Name>,<Demand Side Outlet Node Name>,<Supply Side Inlet Node Name>
! ===============================================================
! <# Controlled Zones>,<Number of Controlled Zones>
 #Controlled Zones,3
! <Controlled Zone>,<Controlled Zone Name>,<Equip List Name>,<Control List Name>,<Zone Node Name>,<# Inlet Nodes>,<# Exhaust Nodes>,<# Return Nodes>
! <Controlled Zone Inlet>,<Inlet Node Count>,<Controlled Zone Name>,<Supply Air Inlet Node Name>,<SD Sys:Cooling/Heating [DD:Cooling] Inlet Node Name>,<DD Sys:Heating Inlet Node Name>
! <Controlled Zone Exhaust>,<Exhaust Node Count>,<Controlled Zone Name>,<Exhaust Air Node Name>
 Controlled Zone,STORAGE_11,STORAGE_11_Z1 EQUIPMENT,,STORAGE_11 AIR NODE,1,0,1
   Controlled Zone Inlet,1,STORAGE_11,STORAGE_11_Z1_ADUOUTLET,STORAGE_11_Z1_TERMINALINLET,N/A
   Controlled Zone Return,1,STORAGE_11,STORAGE_11_Z1_RETURNAIR
 Controlled Zone,BREAK_ROOM_70,BREAK_ROOM_70_Z2 EQUIPMENT,,BREAK_ROOM_70 AIR NODE,1,0,1
   Controlled Zone Inlet,1,BREAK_ROOM_70,BREAK_ROOM_70_Z2_ADUOUTLET,BREAK_ROOM_70_Z2_TERMINALINLET,N/A
   Controlled Zone Return,1,BREAK_ROOM_70,BREAK_ROOM_70_Z2_RETURNAIR
 Controlled Zone,STORAGE_85,STORAGE_85_Z3 EQUIPMENT,,STORAGE_85 AIR NODE,1,0,1
   Controlled Zone Inlet,1,STORAGE_85,STORAGE_85_Z3_ADUOUTLET,STORAGE_85_Z3_TERMINALINLET,N/A
   Controlled Zone Return,1,STORAGE_85,STORAGE_85_Z3_RETURNAIR
! ===============================================================
! <#Zone Equipment Lists>,<Number of Zone Equipment Lists>
 #Zone Equipment Lists,3
! <Zone Equipment List>,<Zone Equipment List Count>,<Zone Equipment List Name>,<Zone Name>,<Number of Components>
! <Zone Equipment Component>,<Component Count>,<Component Type>,<Component Name>,<Zone Name>,<Heating Priority>,<Cooling Priority>
 Zone Equipment List,1,STORAGE_11_Z1 EQUIPMENT,STORAGE_11,1
   Zone Equipment Component,1,ZONEHVAC:AIRDISTRIBUTIONUNIT,STORAGE_11_Z1_ADU,STORAGE_11,1,1
 Zone Equipment List,2,BREAK_ROOM_70_Z2 EQUIPMENT,BREAK_ROOM_70,1
   Zone Equipment Component,1,ZONEHVAC:AIRDISTRIBUTIONUNIT,BREAK_ROOM_70_Z2_ADU,BREAK_ROOM_70,1,1
 Zone Equipment List,3,STORAGE_85_Z3 EQUIPMENT,STORAGE_85,1
   Zone Equipment Component,1,ZONEHVAC:AIRDISTRIBUTIONUNIT,STORAGE_85_Z3_ADU,STORAGE_85,1,1
! ===============================================================
! <#AirLoopHVACs>,<Number of AirLoopHVACs>
 #AirLoopHVACs,3
! <AirLoopHVAC>,<Air Loop Name>,<# Return Nodes>,<# Supply Nodes>,<# Zones Cooled>,<# Zones Heated>,<Outdoor Air Used>
! <AirLoop Return Connections>,<Connection Count>,<AirLoopHVAC Name>,<Zn Eqp Return Node #>,<Zn Eqp Return Node Name>,<AirLoop Return Node #>,<Air Loop Return Node Name>
! <AirLoop Supply Connections>,<Connection Count>,<AirLoopHVAC Name>,<Zn Eqp Supply Node #>,<Zn Eqp Supply Node Name>,<AirLoop Supply Node #>,<Air Loop Supply Node Name>
! <Cooled Zone Info>,<Cooled Zone Count>,<Cooled Zone Name>,<Cooled Zone Inlet Node #>,<Cooled Zone Inlet Node Name>,<AirLoopHVAC Name>
! <Heated Zone Info>,<Heated Zone Count>,<Heated Zone Name>,<Heated Zone Inlet Node #>,<Heated Zone Inlet Node Name>,<AirLoopHVAC Name>
! <Outdoor Air Connections>,<OA Inlet Node #>,<OA Return Air Inlet Node Name>,<OA Outlet Node #>,<OA Mixed Air Outlet Node Name>,<AirLoopHVAC Name>
! <AirLoopHVAC Connector>,<Connector Type>,<Connector Name>,<Loop Name>,<Loop Type>,<Number of Inlets/Outlets>
! <AirLoopHVAC Connector Branches>,<Connector Node Count>,<Connector Type>,<Connector Name>,<Inlet Branch>,<Outlet Branch>,<Loop Name>,<Loop Type>
! <AirLoopHVAC Connector Nodes>,<Connector Node Count>,<Connector Type>,<Connector Name>,<Inlet Node>,<Outlet Node>,<Loop Name>,<Loop Type>
 AirLoopHVAC,STORAGE_11_Z1_AIRLOOP,1,1,1,0,No
   AirLoop Return Connections,1,STORAGE_11_Z1_AIRLOOP,25,STORAGE_11_Z1_ZONEEQUIPMENTOUTLETNODE,4,STORAGE_11_Z1_SUPPLYINLET
   AirLoop Supply Connections,1,STORAGE_11_Z1_AIRLOOP,22,STORAGE_11_Z1_ZONEEQUIPMENTINLET,7,STORAGE_11_Z1_SUPPLYEQUIPMENTOUTLETNODE
   Cooled Zone Info,1,STORAGE_11,1,STORAGE_11_Z1_ADUOUTLET,STORAGE_11_Z1_AIRLOOP
 AirLoopHVAC,BREAK_ROOM_70_Z2_AIRLOOP,1,1,1,0,No
   AirLoop Return Connections,1,BREAK_ROOM_70_Z2_AIRLOOP,26,BREAK_ROOM_70_Z2_ZONEEQUIPMENTOUTLETNODE,8,BREAK_ROOM_70_Z2_SUPPLYINLET
   AirLoop Supply Connections,1,BREAK_ROOM_70_Z2_AIRLOOP,23,BREAK_ROOM_70_Z2_ZONEEQUIPMENTINLET,11,BREAK_ROOM_70_Z2_SUPPLYEQUIPMENTOUTLETNODE
   Cooled Zone Info,1,BREAK_ROOM_70,2,BREAK_ROOM_70_Z2_ADUOUTLET,BREAK_ROOM_70_Z2_AIRLOOP
 AirLoopHVAC,STORAGE_85_Z3_AIRLOOP,1,1,1,0,No
   AirLoop Return Connections,1,STORAGE_85_Z3_AIRLOOP,27,STORAGE_85_Z3_ZONEEQUIPMENTOUTLETNODE,12,STORAGE_85_Z3_SUPPLYINLET
   AirLoop Supply Connections,1,STORAGE_85_Z3_AIRLOOP,24,STORAGE_85_Z3_ZONEEQUIPMENTINLET,15,STORAGE_85_Z3_SUPPLYEQUIPMENTOUTLETNODE
   Cooled Zone Info,1,STORAGE_85,3,STORAGE_85_Z3_ADUOUTLET,STORAGE_85_Z3_AIRLOOP
! ===============================================================
! <#Parent Node Connections>,<Number of Parent Node Connections>
 #Parent Node Connections,45
! <Parent Node Connection>,<Node Name>,<Node ObjectType>,<Node ObjectName>,<Node ConnectionType>,<Node FluidStream>
 Parent Node Connection,STORAGE_11_Z1_SUPPLYINLET,BRANCH,STORAGE_11_Z1_MAINBRANCH,Inlet,1
 Parent Node Connection,STORAGE_11_Z1_COOLC-HEATCNODE,BRANCH,STORAGE_11_Z1_MAINBRANCH,Internal,1
 Parent Node Connection,STORAGE_11_Z1_HEATC-FANNODE,BRANCH,STORAGE_11_Z1_MAINBRANCH,Internal,1
 Parent Node Connection,STORAGE_11_Z1_SUPPLYEQUIPMENTOUTLETNODE,BRANCH,STORAGE_11_Z1_MAINBRANCH,Outlet,1
 Parent Node Connection,BREAK_ROOM_70_Z2_SUPPLYINLET,BRANCH,BREAK_ROOM_70_Z2_MAINBRANCH,Inlet,1
 Parent Node Connection,BREAK_ROOM_70_Z2_COOLC-HEATCNODE,BRANCH,BREAK_ROOM_70_Z2_MAINBRANCH,Internal,1
 Parent Node Connection,BREAK_ROOM_70_Z2_HEATC-FANNODE,BRANCH,BREAK_ROOM_70_Z2_MAINBRANCH,Internal,1
 Parent Node Connection,BREAK_ROOM_70_Z2_SUPPLYEQUIPMENTOUTLETNODE,BRANCH,BREAK_ROOM_70_Z2_MAINBRANCH,Outlet,1
 Parent Node Connection,STORAGE_85_Z3_SUPPLYINLET,BRANCH,STORAGE_85_Z3_MAINBRANCH,Inlet,1
 Parent Node Connection,STORAGE_85_Z3_COOLC-HEATCNODE,BRANCH,STORAGE_85_Z3_MAINBRANCH,Internal,1
 Parent Node Connection,STORAGE_85_Z3_HEATC-FANNODE,BRANCH,STORAGE_85_Z3_MAINBRANCH,Internal,1
 Parent Node Connection,STORAGE_85_Z3_SUPPLYEQUIPMENTOUTLETNODE,BRANCH,STORAGE_85_Z3_MAINBRANCH,Outlet,1
 Parent Node Connection,STORAGE_11_Z1_ZONEEQUIPMENTINLET,AIRLOOPHVAC:SUPPLYPATH,STORAGE_11_Z1,Inlet,1
 Parent Node Connection,BREAK_ROOM_70_Z2_ZONEEQUIPMENTINLET,AIRLOOPHVAC:SUPPLYPATH,BREAK_ROOM_70_Z2,Inlet,1
 Parent Node Connection,STORAGE_85_Z3_ZONEEQUIPMENTINLET,AIRLOOPHVAC:SUPPLYPATH,STORAGE_85_Z3,Inlet,1
 Parent Node Connection,STORAGE_11_Z1_ZONEEQUIPMENTOUTLETNODE,AIRLOOPHVAC:RETURNPATH,STORAGE_11_Z1_RETURNAIRPATH,Outlet,1
 Parent Node Connection,BREAK_ROOM_70_Z2_ZONEEQUIPMENTOUTLETNODE,AIRLOOPHVAC:RETURNPATH,BREAK_ROOM_70_Z2_RETURNAIRPATH,Outlet,1
 Parent Node Connection,STORAGE_85_Z3_ZONEEQUIPMENTOUTLETNODE,AIRLOOPHVAC:RETURNPATH,STORAGE_85_Z3_RETURNAIRPATH,Outlet,1
 Parent Node Connection,STORAGE_11_Z1_ADUOUTLET,ZONEHVAC:AIRDISTRIBUTIONUNIT,STORAGE_11_Z1_ADU,Outlet,1
 Parent Node Connection,BREAK_ROOM_70_Z2_ADUOUTLET,ZONEHVAC:AIRDISTRIBUTIONUNIT,BREAK_ROOM_70_Z2_ADU,Outlet,1
 Parent Node Connection,STORAGE_85_Z3_ADUOUTLET,ZONEHVAC:AIRDISTRIBUTIONUNIT,STORAGE_85_Z3_ADU,Outlet,1
 Parent Node Connection,STORAGE_11_Z1_ADUOUTLET,AIRTERMINAL:SINGLEDUCT:VAV:REHEAT,STORAGE_11_Z1_VAVTERMINAL,Outlet,1
 Parent Node Connection,BREAK_ROOM_70_Z2_ADUOUTLET,AIRTERMINAL:SINGLEDUCT:VAV:REHEAT,BREAK_ROOM_70_Z2_VAVTERMINAL,Outlet,1
 Parent Node Connection,STORAGE_85_Z3_ADUOUTLET,AIRTERMINAL:SINGLEDUCT:VAV:REHEAT,STORAGE_85_Z3_VAVTERMINAL,Outlet,1
 Parent Node Connection,STORAGE_11_Z1_SUPPLYINLET,AIRLOOPHVAC,STORAGE_11_Z1_AIRLOOP,Inlet,1
 Parent Node Connection,STORAGE_11_Z1_ZONEEQUIPMENTOUTLETNODE,AIRLOOPHVAC,STORAGE_11_Z1_AIRLOOP,Outlet,1
 Parent Node Connection,STORAGE_11_Z1_ZONEEQUIPMENTINLET,AIRLOOPHVAC,STORAGE_11_Z1_AIRLOOP,Inlet,1
 Parent Node Connection,STORAGE_11_Z1_SUPPLYEQUIPMENTOUTLETNODE,AIRLOOPHVAC,STORAGE_11_Z1_AIRLOOP,Outlet,1
 Parent Node Connection,BREAK_ROOM_70_Z2_SUPPLYINLET,AIRLOOPHVAC,BREAK_ROOM_70_Z2_AIRLOOP,Inlet,1
 Parent Node Connection,BREAK_ROOM_70_Z2_ZONEEQUIPMENTOUTLETNODE,AIRLOOPHVAC,BREAK_ROOM_70_Z2_AIRLOOP,Outlet,1
 Parent Node Connection,BREAK_ROOM_70_Z2_ZONEEQUIPMENTINLET,AIRLOOPHVAC,BREAK_ROOM_70_Z2_AIRLOOP,Inlet,1
 Parent Node Connection,BREAK_ROOM_70_Z2_SUPPLYEQUIPMENTOUTLETNODE,AIRLOOPHVAC,BREAK_ROOM_70_Z2_AIRLOOP,Outlet,1
 Parent Node Connection,STORAGE_85_Z3_SUPPLYINLET,AIRLOOPHVAC,STORAGE_85_Z3_AIRLOOP,Inlet,1
 Parent Node Connection,STORAGE_85_Z3_ZONEEQUIPMENTOUTLETNODE,AIRLOOPHVAC,STORAGE_85_Z3_AIRLOOP,Outlet,1
 Parent Node Connection,STORAGE_85_Z3_ZONEEQUIPMENTINLET,AIRLOOPHVAC,STORAGE_85_Z3_AIRLOOP,Inlet,1
 Parent Node Connection,STORAGE_85_Z3_SUPPLYEQUIPMENTOUTLETNODE,AIRLOOPHVAC,STORAGE_85_Z3_AIRLOOP,Outlet,1
 Parent Node Connection,BREAK_ROOM_70_Z2_SUPPLYINLET,COILSYSTEM:COOLING:DX,BREAK_ROOM_70_Z2_COOLINGCOIL,Inlet,1
 Parent Node Connection,BREAK_ROOM_70_Z2_COOLC-HEATCNODE,COILSYSTEM:COOLING:DX,BREAK_ROOM_70_Z2_COOLINGCOIL,Outlet,1
 Parent Node Connection,STORAGE_11_Z1_SUPPLYINLET,COILSYSTEM:COOLING:DX,STORAGE_11_Z1_COOLINGCOIL,Inlet,1
 Parent Node Connection,STORAGE_11_Z1_COOLC-HEATCNODE,COILSYSTEM:COOLING:DX,STORAGE_11_Z1_COOLINGCOIL,Outlet,1
 Parent Node Connection,STORAGE_85_Z3_SUPPLYINLET,COILSYSTEM:COOLING:DX,STORAGE_85_Z3_COOLINGCOIL,Inlet,1
 Parent Node Connection,STORAGE_85_Z3_COOLC-HEATCNODE,COILSYSTEM:COOLING:DX,STORAGE_85_Z3_COOLINGCOIL,Outlet,1
 Parent Node Connection,STORAGE_11_Z1_COOLC-HEATCNODE,COILSYSTEM:COOLING:DX,STORAGE_11_Z1_COOLINGCOIL,Sensor,1
 Parent Node Connection,BREAK_ROOM_70_Z2_COOLC-HEATCNODE,COILSYSTEM:COOLING:DX,BREAK_ROOM_70_Z2_COOLINGCOIL,Sensor,1
 Parent Node Connection,STORAGE_85_Z3_COOLC-HEATCNODE,COILSYSTEM:COOLING:DX,STORAGE_85_Z3_COOLINGCOIL,Sensor,1
! ===============================================================
! <#Non-Parent Node Connections>,<Number of Non-Parent Node Connections>
 #Non-Parent Node Connections,63
! <Non-Parent Node Connection>,<Node Name>,<Node ObjectType>,<Node ObjectName>,<Node ConnectionType>,<Node FluidStream>
 Non-Parent Node Connection,STORAGE_11 AIR NODE,ZONEHVAC:EQUIPMENTCONNECTIONS,STORAGE_11,ZoneNode,1
 Non-Parent Node Connection,STORAGE_11_Z1_ADUOUTLET,ZONEHVAC:EQUIPMENTCONNECTIONS,STORAGE_11,ZoneInlet,1
 Non-Parent Node Connection,STORAGE_11_Z1_RETURNAIR,ZONEHVAC:EQUIPMENTCONNECTIONS,STORAGE_11,ZoneReturn,1
 Non-Parent Node Connection,BREAK_ROOM_70 AIR NODE,ZONEHVAC:EQUIPMENTCONNECTIONS,BREAK_ROOM_70,ZoneNode,1
 Non-Parent Node Connection,BREAK_ROOM_70_Z2_ADUOUTLET,ZONEHVAC:EQUIPMENTCONNECTIONS,BREAK_ROOM_70,ZoneInlet,1
 Non-Parent Node Connection,BREAK_ROOM_70_Z2_RETURNAIR,ZONEHVAC:EQUIPMENTCONNECTIONS,BREAK_ROOM_70,ZoneReturn,1
 Non-Parent Node Connection,STORAGE_85 AIR NODE,ZONEHVAC:EQUIPMENTCONNECTIONS,STORAGE_85,ZoneNode,1
 Non-Parent Node Connection,STORAGE_85_Z3_ADUOUTLET,ZONEHVAC:EQUIPMENTCONNECTIONS,STORAGE_85,ZoneInlet,1
 Non-Parent Node Connection,STORAGE_85_Z3_RETURNAIR,ZONEHVAC:EQUIPMENTCONNECTIONS,STORAGE_85,ZoneReturn,1
 Non-Parent Node Connection,STORAGE_11_Z1_HEATC-FANNODE,SETPOINTMANAGER:SCHEDULED,STORAGE_11_Z1_HEATINGSETPOINTMANAGER,Setpoint,1
 Non-Parent Node Connection,STORAGE_11_Z1_COOLC-HEATCNODE,SETPOINTMANAGER:SCHEDULED,STORAGE_11_Z1_COOLINGSETPOINTMANAGER,Setpoint,1
 Non-Parent Node Connection,BREAK_ROOM_70_Z2_HEATC-FANNODE,SETPOINTMANAGER:SCHEDULED,BREAK_ROOM_70_Z2_HEATINGSETPOINTMANAGER,Setpoint,1
 Non-Parent Node Connection,BREAK_ROOM_70_Z2_COOLC-HEATCNODE,SETPOINTMANAGER:SCHEDULED,BREAK_ROOM_70_Z2_COOLINGSETPOINTMANAGER,Setpoint,1
 Non-Parent Node Connection,STORAGE_85_Z3_HEATC-FANNODE,SETPOINTMANAGER:SCHEDULED,STORAGE_85_Z3_HEATINGSETPOINTMANAGER,Setpoint,1
 Non-Parent Node Connection,STORAGE_85_Z3_COOLC-HEATCNODE,SETPOINTMANAGER:SCHEDULED,STORAGE_85_Z3_COOLINGSETPOINTMANAGER,Setpoint,1
 Non-Parent Node Connection,STORAGE_11_Z1_SUPPLYEQUIPMENTOUTLETNODE,SETPOINTMANAGER:OUTDOORAIRRESET,STORAGE_11_Z1_SETPOINTMANAGER,Setpoint,1
 Non-Parent Node Connection,BREAK_ROOM_70_Z2_SUPPLYEQUIPMENTOUTLETNODE,SETPOINTMANAGER:OUTDOORAIRRESET,BREAK_ROOM_70_Z2_SETPOINTMANAGER,Setpoint,1
 Non-Parent Node Connection,STORAGE_85_Z3_SUPPLYEQUIPMENTOUTLETNODE,SETPOINTMANAGER:OUTDOORAIRRESET,STORAGE_85_Z3_SETPOINTMANAGER,Setpoint,1
 Non-Parent Node Connection,STORAGE_11_Z1_ZONEEQUIPMENTINLET,AIRLOOPHVAC:ZONESPLITTER,STORAGE_11_Z1_SUPPLYSPLITTER,Inlet,1
 Non-Parent Node Connection,STORAGE_11_Z1_TERMINALINLET,AIRLOOPHVAC:ZONESPLITTER,STORAGE_11_Z1_SUPPLYSPLITTER,Outlet,1
 Non-Parent Node Connection,BREAK_ROOM_70_Z2_ZONEEQUIPMENTINLET,AIRLOOPHVAC:ZONESPLITTER,BREAK_ROOM_70_Z2_SUPPLYSPLITTER,Inlet,1
 Non-Parent Node Connection,BREAK_ROOM_70_Z2_TERMINALINLET,AIRLOOPHVAC:ZONESPLITTER,BREAK_ROOM_70_Z2_SUPPLYSPLITTER,Outlet,1
 Non-Parent Node Connection,STORAGE_85_Z3_ZONEEQUIPMENTINLET,AIRLOOPHVAC:ZONESPLITTER,STORAGE_85_Z3_SUPPLYSPLITTER,Inlet,1
 Non-Parent Node Connection,STORAGE_85_Z3_TERMINALINLET,AIRLOOPHVAC:ZONESPLITTER,STORAGE_85_Z3_SUPPLYSPLITTER,Outlet,1
 Non-Parent Node Connection,STORAGE_11_Z1_TERMINALOUTLET,AIRTERMINAL:SINGLEDUCT:VAV:REHEAT,STORAGE_11_Z1_VAVTERMINAL,Outlet,1
 Non-Parent Node Connection,STORAGE_11_Z1_TERMINALINLET,AIRTERMINAL:SINGLEDUCT:VAV:REHEAT,STORAGE_11_Z1_VAVTERMINAL,Inlet,1
 Non-Parent Node Connection,BREAK_ROOM_70_Z2_TERMINALOUTLET,AIRTERMINAL:SINGLEDUCT:VAV:REHEAT,BREAK_ROOM_70_Z2_VAVTERMINAL,Outlet,1
 Non-Parent Node Connection,BREAK_ROOM_70_Z2_TERMINALINLET,AIRTERMINAL:SINGLEDUCT:VAV:REHEAT,BREAK_ROOM_70_Z2_VAVTERMINAL,Inlet,1
 Non-Parent Node Connection,STORAGE_85_Z3_TERMINALOUTLET,AIRTERMINAL:SINGLEDUCT:VAV:REHEAT,STORAGE_85_Z3_VAVTERMINAL,Outlet,1
 Non-Parent Node Connection,STORAGE_85_Z3_TERMINALINLET,AIRTERMINAL:SINGLEDUCT:VAV:REHEAT,STORAGE_85_Z3_VAVTERMINAL,Inlet,1
 Non-Parent Node Connection,STORAGE_11_Z1_COOLC-HEATCNODE,COIL:HEATING:ELECTRIC,STORAGE_11_Z1_HEATINGCOIL,Inlet,1
 Non-Parent Node Connection,STORAGE_11_Z1_HEATC-FANNODE,COIL:HEATING:ELECTRIC,STORAGE_11_Z1_HEATINGCOIL,Outlet,1
 Non-Parent Node Connection,STORAGE_11_Z1_HEATC-FANNODE,COIL:HEATING:ELECTRIC,STORAGE_11_Z1_HEATINGCOIL,Sensor,1
 Non-Parent Node Connection,STORAGE_11_Z1_TERMINALOUTLET,COIL:HEATING:ELECTRIC,STORAGE_11_Z1_REHEATCOIL,Inlet,1
 Non-Parent Node Connection,STORAGE_11_Z1_ADUOUTLET,COIL:HEATING:ELECTRIC,STORAGE_11_Z1_REHEATCOIL,Outlet,1
 Non-Parent Node Connection,BREAK_ROOM_70_Z2_COOLC-HEATCNODE,COIL:HEATING:ELECTRIC,BREAK_ROOM_70_Z2_HEATINGCOIL,Inlet,1
 Non-Parent Node Connection,BREAK_ROOM_70_Z2_HEATC-FANNODE,COIL:HEATING:ELECTRIC,BREAK_ROOM_70_Z2_HEATINGCOIL,Outlet,1
 Non-Parent Node Connection,BREAK_ROOM_70_Z2_HEATC-FANNODE,COIL:HEATING:ELECTRIC,BREAK_ROOM_70_Z2_HEATINGCOIL,Sensor,1
 Non-Parent Node Connection,BREAK_ROOM_70_Z2_TERMINALOUTLET,COIL:HEATING:ELECTRIC,BREAK_ROOM_70_Z2_REHEATCOIL,Inlet,1
 Non-Parent Node Connection,BREAK_ROOM_70_Z2_ADUOUTLET,COIL:HEATING:ELECTRIC,BREAK_ROOM_70_Z2_REHEATCOIL,Outlet,1
 Non-Parent Node Connection,STORAGE_85_Z3_COOLC-HEATCNODE,COIL:HEATING:ELECTRIC,STORAGE_85_Z3_HEATINGCOIL,Inlet,1
 Non-Parent Node Connection,STORAGE_85_Z3_HEATC-FANNODE,COIL:HEATING:ELECTRIC,STORAGE_85_Z3_HEATINGCOIL,Outlet,1
 Non-Parent Node Connection,STORAGE_85_Z3_HEATC-FANNODE,COIL:HEATING:ELECTRIC,STORAGE_85_Z3_HEATINGCOIL,Sensor,1
 Non-Parent Node Connection,STORAGE_85_Z3_TERMINALOUTLET,COIL:HEATING:ELECTRIC,STORAGE_85_Z3_REHEATCOIL,Inlet,1
 Non-Parent Node Connection,STORAGE_85_Z3_ADUOUTLET,COIL:HEATING:ELECTRIC,STORAGE_85_Z3_REHEATCOIL,Outlet,1
 Non-Parent Node Connection,STORAGE_11_Z1_ZONEEQUIPMENTOUTLETNODE,AIRLOOPHVAC:ZONEMIXER,STORAGE_11_Z1_RETURNAIRMIXER,Outlet,1
 Non-Parent Node Connection,STORAGE_11_Z1_RETURNAIR,AIRLOOPHVAC:ZONEMIXER,STORAGE_11_Z1_RETURNAIRMIXER,Inlet,1
 Non-Parent Node Connection,BREAK_ROOM_70_Z2_ZONEEQUIPMENTOUTLETNODE,AIRLOOPHVAC:ZONEMIXER,BREAK_ROOM_70_Z2_RETURNAIRMIXER,Outlet,1
 Non-Parent Node Connection,BREAK_ROOM_70_Z2_RETURNAIR,AIRLOOPHVAC:ZONEMIXER,BREAK_ROOM_70_Z2_RETURNAIRMIXER,Inlet,1
 Non-Parent Node Connection,STORAGE_85_Z3_ZONEEQUIPMENTOUTLETNODE,AIRLOOPHVAC:ZONEMIXER,STORAGE_85_Z3_RETURNAIRMIXER,Outlet,1
 Non-Parent Node Connection,STORAGE_85_Z3_RETURNAIR,AIRLOOPHVAC:ZONEMIXER,STORAGE_85_Z3_RETURNAIRMIXER,Inlet,1
 Non-Parent Node Connection,STORAGE_11_Z1_HEATC-FANNODE,FAN:VARIABLEVOLUME,STORAGE_11_Z1_SUPPLYFAN,Inlet,1
 Non-Parent Node Connection,STORAGE_11_Z1_SUPPLYEQUIPMENTOUTLETNODE,FAN:VARIABLEVOLUME,STORAGE_11_Z1_SUPPLYFAN,Outlet,1
 Non-Parent Node Connection,BREAK_ROOM_70_Z2_HEATC-FANNODE,FAN:VARIABLEVOLUME,BREAK_ROOM_70_Z2_SUPPLYFAN,Inlet,1
 Non-Parent Node Connection,BREAK_ROOM_70_Z2_SUPPLYEQUIPMENTOUTLETNODE,FAN:VARIABLEVOLUME,BREAK_ROOM_70_Z2_SUPPLYFAN,Outlet,1
 Non-Parent Node Connection,STORAGE_85_Z3_HEATC-FANNODE,FAN:VARIABLEVOLUME,STORAGE_85_Z3_SUPPLYFAN,Inlet,1
 Non-Parent Node Connection,STORAGE_85_Z3_SUPPLYEQUIPMENTOUTLETNODE,FAN:VARIABLEVOLUME,STORAGE_85_Z3_SUPPLYFAN,Outlet,1
 Non-Parent Node Connection,STORAGE_11_Z1_SUPPLYINLET,COIL:COOLING:DX:SINGLESPEED,STORAGE_11_Z1_COOLINGCOILDX,Inlet,1
 Non-Parent Node Connection,STORAGE_11_Z1_COOLC-HEATCNODE,COIL:COOLING:DX:SINGLESPEED,STORAGE_11_Z1_COOLINGCOILDX,Outlet,1
 Non-Parent Node Connection,BREAK_ROOM_70_Z2_SUPPLYINLET,COIL:COOLING:DX:SINGLESPEED,BREAK_ROOM_70_Z2_COOLINGCOILDX,Inlet,1
 Non-Parent Node Connection,BREAK_ROOM_70_Z2_COOLC-HEATCNODE,COIL:COOLING:DX:SINGLESPEED,BREAK_ROOM_70_Z2_COOLINGCOILDX,Outlet,1
 Non-Parent Node Connection,STORAGE_85_Z3_SUPPLYINLET,COIL:COOLING:DX:SINGLESPEED,STORAGE_85_Z3_COOLINGCOILDX,Inlet,1
 Non-Parent Node Connection,STORAGE_85_Z3_COOLC-HEATCNODE,COIL:COOLING:DX:SINGLESPEED,STORAGE_85_Z3_COOLINGCOILDX,Outlet,1
