Program Version,EnergyPlus, Version 24.2.0-94a887817b, YMD=2025.11.02 09:28,
   ** Warning ** Site:GroundTemperature:BuildingSurface: Some values fall outside the range of 15-25C.
   **   ~~~   ** These values may be inappropriate.  Please consult the Input Output Reference for more details.
   ** Warning ** Weather file location will be used rather than entered (IDF) Location object.
   **   ~~~   ** ..Location object=SITE
   **   ~~~   ** ..Weather File Location=Chicago Ohare Intl Ap IL USA TMY3 WMO#=725300
   **   ~~~   ** ..due to location differences, Latitude difference=[8.11E-002] degrees, Longitude difference=[0.30] degrees.
   **   ~~~   ** ..Time Zone difference=[2.0] hour(s), Elevation difference=[1910.00] percent, [191.00] meters.
   ** Warning ** ProcessScheduleInput: Schedule:Compact="BREAK_ROOM_LIGHTING" has missing day types in Through=12/31
   **   ~~~   ** Last "For" field=FOR: WEEKENDS
   **   ~~~   ** Missing day types="Holiday","SummerDesignDay","WinterDesignDay","CustomDay1","CustomDay2"
   **   ~~~   ** Missing day types will have 0.0 as Schedule Values
   ** Warning ** ProcessScheduleInput: Schedule:Compact="BREAK_ROOM_EQUIPMENT" has missing day types in Through=12/31
   **   ~~~   ** Last "For" field=FOR: WEEKENDS
   **   ~~~   ** Missing day types="Holiday","SummerDesignDay","WinterDesignDay","CustomDay1","CustomDay2"
   **   ~~~   ** Missing day types will have 0.0 as Schedule Values
   ** Warning ** ProcessScheduleInput: Schedule:Compact="STORAGE_LIGHTING" has missing day types in Through=12/31
   **   ~~~   ** Last "For" field=FOR: WEEKENDS
   **   ~~~   ** Missing day types="Holiday","SummerDesignDay","WinterDesignDay","CustomDay1","CustomDay2"
   **   ~~~   ** Missing day types will have 0.0 as Schedule Values
   ** Warning ** ProcessScheduleInput: Schedule:Compact="STORAGE_EQUIPMENT" has missing day types in Through=12/31
   **   ~~~   ** Last "For" field=FOR: WEEKENDS
   **   ~~~   ** Missing day types="Holiday","SummerDesignDay","WinterDesignDay","CustomDay1","CustomDay2"
   **   ~~~   ** Missing day types will have 0.0 as Schedule Values
   ** Warning ** No Glare Calculation Daylighting Reference Point Name provided for object named: BREAK_ROOM_70_DAYLIGHT
   **   ~~~   ** No glare calculation performed, and the simulation continues.
   ** Warning ** GetDaylightingControls: Fraction of zone or space controlled by the Daylighting reference points is < 1.0.
   **   ~~~   ** ..discovered in Daylighting:Controls="BREAK_ROOM_70_DAYLIGHT", only 0.900 of the zone or space is controlled.
   ** Warning ** GeometryTransformForDaylighting: Reference point X Value outside Zone Min/Max X, Zone=BREAK_ROOM_70
   **   ~~~   ** ...X Reference Point= 2.00, Zone Minimum X= 5.15, Zone Maximum X= 9.75
   **   ~~~   ** ...X Reference Distance Outside MinimumX= 3.1494 m.
   ** Warning ** GeometryTransformForDaylighting: Reference point Y Value outside Zone Min/Max Y, Zone=BREAK_ROOM_70
   **   ~~~   ** ...Y Reference Point= 2.00, Zone Minimum Y= -5.14, Zone Maximum Y= -0.33
   **   ~~~   ** ...Y Reference Distance Outside MinimumY= 2.3268 m.
   ** Warning ** GeometryTransformForDaylighting: Reference point Z Value outside Zone Min/Max Z, Zone=BREAK_ROOM_70
   **   ~~~   ** ...Z Reference Point= 0.80, Zone Minimum Z= 210.00, Zone Maximum Z= 213.00
   **   ~~~   ** ...Z Reference Distance Outside MinimumZ= 209.2000 m.
   ** Warning ** Since Damper Heating Action = NORMAL, input for Maximum Flow per Zone Floor Area During Reheat will be ignored.
   **   ~~~   ** Occurs in AirTerminal:SingleDuct:VAV:Reheat = STORAGE_11_Z1_VAVTERMINAL
   ** Warning ** Since Damper Heating Action = NORMAL, input for Maximum Flow Fraction During Reheat will be ignored.
   **   ~~~   ** Occurs in AirTerminal:SingleDuct:VAV:Reheat = STORAGE_11_Z1_VAVTERMINAL
   ** Warning ** Since Damper Heating Action = NORMAL, input for Maximum Flow per Zone Floor Area During Reheat will be ignored.
   **   ~~~   ** Occurs in AirTerminal:SingleDuct:VAV:Reheat = BREAK_ROOM_70_Z2_VAVTERMINAL
   ** Warning ** Since Damper Heating Action = NORMAL, input for Maximum Flow Fraction During Reheat will be ignored.
   **   ~~~   ** Occurs in AirTerminal:SingleDuct:VAV:Reheat = BREAK_ROOM_70_Z2_VAVTERMINAL
   ** Warning ** Since Damper Heating Action = NORMAL, input for Maximum Flow per Zone Floor Area During Reheat will be ignored.
   **   ~~~   ** Occurs in AirTerminal:SingleDuct:VAV:Reheat = STORAGE_85_Z3_VAVTERMINAL
   ** Warning ** Since Damper Heating Action = NORMAL, input for Maximum Flow Fraction During Reheat will be ignored.
   **   ~~~   ** Occurs in AirTerminal:SingleDuct:VAV:Reheat = STORAGE_85_Z3_VAVTERMINAL
   ** Warning ** GetDXCoils: Coil:Cooling:DX:SingleSpeed="STORAGE_11_Z1_COOLINGCOILDX" curve values
   **   ~~~   ** ... Energy Input Ratio Function of Temperature Curve Name = COOL-EIR-FT output is not equal to 1.0 (+ or - 10%) at rated conditions.
   **   ~~~   ** ... Curve output at rated conditions = -3.341E-002
   ** Warning ** GetDXCoils: Coil:Cooling:DX:SingleSpeed="BREAK_ROOM_70_Z2_COOLINGCOILDX" curve values
   **   ~~~   ** ... Energy Input Ratio Function of Temperature Curve Name = COOL-EIR-FT output is not equal to 1.0 (+ or - 10%) at rated conditions.
   **   ~~~   ** ... Curve output at rated conditions = -3.341E-002
   ** Warning ** GetDXCoils: Coil:Cooling:DX:SingleSpeed="STORAGE_85_Z3_COOLINGCOILDX" curve values
   **   ~~~   ** ... Energy Input Ratio Function of Temperature Curve Name = COOL-EIR-FT output is not equal to 1.0 (+ or - 10%) at rated conditions.
   **   ~~~   ** ... Curve output at rated conditions = -3.341E-002
   ** Warning ** CalcDoe2DXCoil: Coil:Cooling:DX:SingleSpeed="STORAGE_11_Z1_COOLINGCOILDX":
   **   ~~~   **  Energy Input Ratio Modifier curve (function of temperature) output is negative (-3.334E-002).
   **   ~~~   **  Negative value occurs using a condenser inlet air temperature of 35.0 and an inlet air wet-bulb temperature of 19.4.
   **   ~~~   **  Resetting curve output to zero and continuing simulation.
   **   ~~~   **  During Warmup, Environment=YEAR ROUND RUN PERIOD, at Simulation time=01/01 00:00 - 00:15
   ** Warning ** CalcDoe2DXCoil: Coil:Cooling:DX:SingleSpeed="BREAK_ROOM_70_Z2_COOLINGCOILDX":
   **   ~~~   **  Energy Input Ratio Modifier curve (function of temperature) output is negative (-3.334E-002).
   **   ~~~   **  Negative value occurs using a condenser inlet air temperature of 35.0 and an inlet air wet-bulb temperature of 19.4.
   **   ~~~   **  Resetting curve output to zero and continuing simulation.
   **   ~~~   **  During Warmup, Environment=YEAR ROUND RUN PERIOD, at Simulation time=01/01 00:00 - 00:15
   ** Warning ** CalcDoe2DXCoil: Coil:Cooling:DX:SingleSpeed="STORAGE_85_Z3_COOLINGCOILDX":
   **   ~~~   **  Energy Input Ratio Modifier curve (function of temperature) output is negative (-3.334E-002).
   **   ~~~   **  Negative value occurs using a condenser inlet air temperature of 35.0 and an inlet air wet-bulb temperature of 19.4.
   **   ~~~   **  Resetting curve output to zero and continuing simulation.
   **   ~~~   **  During Warmup, Environment=YEAR ROUND RUN PERIOD, at Simulation time=01/01 00:00 - 00:15
   ************* Testing Individual Branch Integrity
   ************* All Branches passed integrity testing
   ************* Testing Individual Supply Air Path Integrity
   ************* All Supply Air Paths passed integrity testing
   ************* Testing Individual Return Air Path Integrity
   ************* All Return Air Paths passed integrity testing
   ************* No node connection errors were found.
   ************* Beginning Simulation
   ** Warning ** CalcDoe2DXCoil: Coil:Cooling:DX:SingleSpeed="STORAGE_11_Z1_COOLINGCOILDX" - Air volume flow rate per watt of rated total cooling capacity is out of range at 1.032E-005 m3/s/W.
   **   ~~~   **  Environment=YEAR ROUND RUN PERIOD, at Simulation time=01/17 12:45 - 13:00
   **   ~~~   ** Expected range for VolumeFlowPerRatedTotalCapacity=[2.684E-005--6.713E-005]
   **   ~~~   ** Possible causes include inconsistent air flow rates in system components,
   **   ~~~   ** or variable air volume [VAV] system using incorrect coil type.
   ** Warning ** CalcDoe2DXCoil: Coil:Cooling:DX:SingleSpeed "STORAGE_11_Z1_COOLINGCOILDX" - Full load outlet air dry-bulb temperature < 2C. This indicates the possibility of coil frost/freeze. Outlet temperature = -44.65 C.
   **   ~~~   **  ...Occurrence info = YEAR ROUND RUN PERIOD, 01/17 12:45 - 13:00
   **   ~~~   ** ... Possible reasons for low outlet air dry-bulb temperatures are: This DX coil
   **   ~~~   **    1) may have a low inlet air dry-bulb temperature. Inlet air temperature = 24.175 C.
   **   ~~~   **    2) may have a low air flow rate per watt of cooling capacity. Check inputs.
   **   ~~~   **    3) is used as part of a HX assisted cooling coil which uses a high sensible effectiveness. Check inputs.
   ** Warning ** CalcDoe2DXCoil: Coil:Cooling:DX:SingleSpeed="BREAK_ROOM_70_Z2_COOLINGCOILDX" - Air volume flow rate per watt of rated total cooling capacity is out of range at 1.039E-005 m3/s/W.
   **   ~~~   **  Environment=YEAR ROUND RUN PERIOD, at Simulation time=02/09 15:23 - 15:30
   **   ~~~   ** Expected range for VolumeFlowPerRatedTotalCapacity=[2.684E-005--6.713E-005]
   **   ~~~   ** Possible causes include inconsistent air flow rates in system components,
   **   ~~~   ** or variable air volume [VAV] system using incorrect coil type.
   ** Warning ** CalcDoe2DXCoil: Coil:Cooling:DX:SingleSpeed "BREAK_ROOM_70_Z2_COOLINGCOILDX" - Full load outlet air dry-bulb temperature < 2C. This indicates the possibility of coil frost/freeze. Outlet temperature = -43.49 C.
   **   ~~~   **  ...Occurrence info = YEAR ROUND RUN PERIOD, 02/09 15:23 - 15:30
   **   ~~~   ** ... Possible reasons for low outlet air dry-bulb temperatures are: This DX coil
   **   ~~~   **    1) may have a low inlet air dry-bulb temperature. Inlet air temperature = 24.154 C.
   **   ~~~   **    2) may have a low air flow rate per watt of cooling capacity. Check inputs.
   **   ~~~   **    3) is used as part of a HX assisted cooling coil which uses a high sensible effectiveness. Check inputs.
   ** Warning ** CalcDoe2DXCoil: Coil:Cooling:DX:SingleSpeed="STORAGE_85_Z3_COOLINGCOILDX" - Air volume flow rate per watt of rated total cooling capacity is out of range at 1.030E-005 m3/s/W.
   **   ~~~   **  Environment=YEAR ROUND RUN PERIOD, at Simulation time=02/10 14:23 - 14:30
   **   ~~~   ** Expected range for VolumeFlowPerRatedTotalCapacity=[2.684E-005--6.713E-005]
   **   ~~~   ** Possible causes include inconsistent air flow rates in system components,
   **   ~~~   ** or variable air volume [VAV] system using incorrect coil type.
   ** Warning ** CalcDoe2DXCoil: Coil:Cooling:DX:SingleSpeed "STORAGE_85_Z3_COOLINGCOILDX" - Full load outlet air dry-bulb temperature < 2C. This indicates the possibility of coil frost/freeze. Outlet temperature = -44.91 C.
   **   ~~~   **  ...Occurrence info = YEAR ROUND RUN PERIOD, 02/10 14:23 - 14:30
   **   ~~~   ** ... Possible reasons for low outlet air dry-bulb temperatures are: This DX coil
   **   ~~~   **    1) may have a low inlet air dry-bulb temperature. Inlet air temperature = 24.112 C.
   **   ~~~   **    2) may have a low air flow rate per watt of cooling capacity. Check inputs.
   **   ~~~   **    3) is used as part of a HX assisted cooling coil which uses a high sensible effectiveness. Check inputs.
   ** Warning ** CalcDoe2DXCoil: Coil:Cooling:DX:SingleSpeed "STORAGE_11_Z1_COOLINGCOILDX" - Air-cooled condenser inlet dry-bulb temperature below 0 C. Outdoor dry-bulb temperature = -4.40
   **   ~~~   **  ... Occurrence info = YEAR ROUND RUN PERIOD, 02/15 15:30 - 15:45
   **   ~~~   ** ... Operation at low ambient temperatures may require special performance curves.
   ** Warning ** CalcDoe2DXCoil: Coil:Cooling:DX:SingleSpeed "BREAK_ROOM_70_Z2_COOLINGCOILDX" - Air-cooled condenser inlet dry-bulb temperature below 0 C. Outdoor dry-bulb temperature = -0.55
   **   ~~~   **  ... Occurrence info = YEAR ROUND RUN PERIOD, 03/17 17:00 - 17:05
   **   ~~~   ** ... Operation at low ambient temperatures may require special performance curves.
   ** Warning ** CalcDoe2DXCoil: Coil:Cooling:DX:SingleSpeed "STORAGE_85_Z3_COOLINGCOILDX" - Air-cooled condenser inlet dry-bulb temperature below 0 C. Outdoor dry-bulb temperature = -0.55
   **   ~~~   **  ... Occurrence info = YEAR ROUND RUN PERIOD, 03/17 17:00 - 17:05
   **   ~~~   ** ... Operation at low ambient temperatures may require special performance curves.
   ************* Simulation Error Summary *************
   ************* There are 1 unused schedules in input.
   ************* Use Output:Diagnostics,DisplayUnusedSchedules; to see them.
   *************
   ************* ===== Recurring Error Summary =====
   ************* The following recurring error messages occurred.
   *************
   *************  ** Warning ** CalcDoe2DXCoil: Coil:Cooling:DX:SingleSpeed="STORAGE_11_Z1_COOLINGCOILDX": Energy Input Ratio Modifier curve (function of temperature) output is negative warning continues...
   *************  **   ~~~   **   This error occurred 808 total times;
   *************  **   ~~~   **   during Warmup 1 times;
   *************  **   ~~~   **   during Sizing 0 times.
   *************  **   ~~~   **   Max=-0.000037  Min=-0.033347
   *************
   *************  ** Warning ** CalcDoe2DXCoil: Coil:Cooling:DX:SingleSpeed="BREAK_ROOM_70_Z2_COOLINGCOILDX": Energy Input Ratio Modifier curve (function of temperature) output is negative warning continues...
   *************  **   ~~~   **   This error occurred 833 total times;
   *************  **   ~~~   **   during Warmup 1 times;
   *************  **   ~~~   **   during Sizing 0 times.
   *************  **   ~~~   **   Max=-0.000008  Min=-0.033347
   *************
   *************  ** Warning ** CalcDoe2DXCoil: Coil:Cooling:DX:SingleSpeed="STORAGE_85_Z3_COOLINGCOILDX": Energy Input Ratio Modifier curve (function of temperature) output is negative warning continues...
   *************  **   ~~~   **   This error occurred 1803 total times;
   *************  **   ~~~   **   during Warmup 1 times;
   *************  **   ~~~   **   during Sizing 0 times.
   *************  **   ~~~   **   Max=-0.000052  Min=-0.033347
   *************
   *************  ** Warning ** CalcDoe2DXCoil: Coil:Cooling:DX:SingleSpeed="STORAGE_11_Z1_COOLINGCOILDX" - Air volume flow rate per watt of rated total cooling capacity is out of range error continues...
   *************  **   ~~~   **   This error occurred 84370 total times;
   *************  **   ~~~   **   during Warmup 0 times;
   *************  **   ~~~   **   during Sizing 0 times.
   *************  **   ~~~   **   Max=0.000011  Min=0.000010
   *************
   *************  ** Warning ** CalcDoe2DXCoil: Coil:Cooling:DX:SingleSpeed="STORAGE_11_Z1_COOLINGCOILDX" - Full load outlet temperature indicates a possibility of frost/freeze error continues. Outlet air temperature statistics follow:
   *************  **   ~~~   **   This error occurred 32909 total times;
   *************  **   ~~~   **   during Warmup 0 times;
   *************  **   ~~~   **   during Sizing 0 times.
   *************  **   ~~~   **   Max=-29.550133  Min=-46.428688
   *************
   *************  ** Warning ** CalcDoe2DXCoil: Coil:Cooling:DX:SingleSpeed="BREAK_ROOM_70_Z2_COOLINGCOILDX" - Air volume flow rate per watt of rated total cooling capacity is out of range error continues...
   *************  **   ~~~   **   This error occurred 86592 total times;
   *************  **   ~~~   **   during Warmup 0 times;
   *************  **   ~~~   **   during Sizing 0 times.
   *************  **   ~~~   **   Max=0.000011  Min=0.000010
   *************
   *************  ** Warning ** CalcDoe2DXCoil: Coil:Cooling:DX:SingleSpeed="BREAK_ROOM_70_Z2_COOLINGCOILDX" - Full load outlet temperature indicates a possibility of frost/freeze error continues. Outlet air temperature statistics follow:
   *************  **   ~~~   **   This error occurred 33853 total times;
   *************  **   ~~~   **   during Warmup 0 times;
   *************  **   ~~~   **   during Sizing 0 times.
   *************  **   ~~~   **   Max=-29.416448  Min=-46.173121
   *************
   *************  ** Warning ** CalcDoe2DXCoil: Coil:Cooling:DX:SingleSpeed="STORAGE_85_Z3_COOLINGCOILDX" - Air volume flow rate per watt of rated total cooling capacity is out of range error continues...
   *************  **   ~~~   **   This error occurred 80416 total times;
   *************  **   ~~~   **   during Warmup 0 times;
   *************  **   ~~~   **   during Sizing 0 times.
   *************  **   ~~~   **   Max=0.000011  Min=0.000010
   *************
   *************  ** Warning ** CalcDoe2DXCoil: Coil:Cooling:DX:SingleSpeed="STORAGE_85_Z3_COOLINGCOILDX" - Full load outlet temperature indicates a possibility of frost/freeze error continues. Outlet air temperature statistics follow:
   *************  **   ~~~   **   This error occurred 31355 total times;
   *************  **   ~~~   **   during Warmup 0 times;
   *************  **   ~~~   **   during Sizing 0 times.
   *************  **   ~~~   **   Max=-29.942103  Min=-47.338916
   *************
   *************  ** Warning ** CalcDoe2DXCoil: Coil:Cooling:DX:SingleSpeed="STORAGE_11_Z1_COOLINGCOILDX" - Low condenser dry-bulb temperature error continues...
   *************  **   ~~~   **   This error occurred 43 total times;
   *************  **   ~~~   **   during Warmup 0 times;
   *************  **   ~~~   **   during Sizing 0 times.
   *************  **   ~~~   **   Max=-0.425000 [C]  Min=-4.700000 [C]
   *************
   *************  ** Warning ** CalcDoe2DXCoil: Coil:Cooling:DX:SingleSpeed="BREAK_ROOM_70_Z2_COOLINGCOILDX" - Low condenser dry-bulb temperature error continues...
   *************  **   ~~~   **   This error occurred 37 total times;
   *************  **   ~~~   **   during Warmup 0 times;
   *************  **   ~~~   **   during Sizing 0 times.
   *************  **   ~~~   **   Max=-0.425000 [C]  Min=-2.750000 [C]
   *************
   *************  ** Warning ** CalcDoe2DXCoil: Coil:Cooling:DX:SingleSpeed="STORAGE_85_Z3_COOLINGCOILDX" - Low condenser dry-bulb temperature error continues...
   *************  **   ~~~   **   This error occurred 15 total times;
   *************  **   ~~~   **   during Warmup 0 times;
   *************  **   ~~~   **   during Sizing 0 times.
   *************  **   ~~~   **   Max=-0.425000 [C]  Min=-1.650000 [C]
   *************
   ************* EnergyPlus Warmup Error Summary. During Warmup: 0 Warning; 0 Severe Errors.
   ************* EnergyPlus Sizing Error Summary. During Sizing: 0 Warning; 0 Severe Errors.
   ************* EnergyPlus Completed Successfully-- 353054 Warning; 0 Severe Errors; Elapsed Time=00hr 00min  5.61sec
