Program Version,EnergyPlus, Version 24.2.0-94a887817b, YMD=2025.11.02 09:28,
Var Type (reported time step),Var Report Type,Variable Name [Units]
Zone,Meter,Electricity:Facility [J]
Zone,Meter,Electricity:Building [J]
Zone,Meter,Electricity:Zone:STORAGE_11 [J]
Zone,Meter,Electricity:SpaceType:GENERAL [J]
Zone,Meter,InteriorLights:Electricity [J]
Zone,Meter,InteriorLights:Electricity:Zone:STORAGE_11 [J]
Zone,Meter,InteriorLights:Electricity:SpaceType:GENERAL [J]
Zone,Meter,General:InteriorLights:Electricity [J]
Zone,Meter,General:InteriorLights:Electricity:Zone:STORAGE_11 [J]
Zone,Meter,General:InteriorLights:Electricity:SpaceType:GENERAL [J]
Zone,Meter,Electricity:Zone:BREAK_ROOM_70 [J]
Zone,Meter,InteriorLights:Electricity:Zone:BREAK_ROOM_70 [J]
Zone,Meter,General:InteriorLights:Electricity:Zone:BREAK_ROOM_70 [J]
Zone,Meter,Electricity:Zone:STORAGE_85 [J]
Zone,Meter,InteriorLights:Electricity:Zone:STORAGE_85 [J]
Zone,Meter,General:InteriorLights:Electricity:Zone:STORAGE_85 [J]
Zone,Meter,InteriorEquipment:Electricity [J]
Zone,Meter,InteriorEquipment:Electricity:Zone:STORAGE_11 [J]
Zone,Meter,InteriorEquipment:Electricity:SpaceType:GENERAL [J]
Zone,Meter,General:InteriorEquipment:Electricity [J]
Zone,Meter,General:InteriorEquipment:Electricity:Zone:STORAGE_11 [J]
Zone,Meter,General:InteriorEquipment:Electricity:SpaceType:GENERAL [J]
Zone,Meter,InteriorEquipment:Electricity:Zone:BREAK_ROOM_70 [J]
Zone,Meter,General:InteriorEquipment:Electricity:Zone:BREAK_ROOM_70 [J]
Zone,Meter,InteriorEquipment:Electricity:Zone:STORAGE_85 [J]
Zone,Meter,General:InteriorEquipment:Electricity:Zone:STORAGE_85 [J]
Zone,Meter,EnergyTransfer:Facility [J]
Zone,Meter,EnergyTransfer:Building [J]
Zone,Meter,EnergyTransfer:Zone:STORAGE_11 [J]
Zone,Meter,Heating:EnergyTransfer [J]
Zone,Meter,Heating:EnergyTransfer:Zone:STORAGE_11 [J]
Zone,Meter,General:Heating:EnergyTransfer [J]
Zone,Meter,General:Heating:EnergyTransfer:Zone:STORAGE_11 [J]
Zone,Meter,Cooling:EnergyTransfer [J]
Zone,Meter,Cooling:EnergyTransfer:Zone:STORAGE_11 [J]
Zone,Meter,General:Cooling:EnergyTransfer [J]
Zone,Meter,General:Cooling:EnergyTransfer:Zone:STORAGE_11 [J]
Zone,Meter,EnergyTransfer:Zone:BREAK_ROOM_70 [J]
Zone,Meter,Heating:EnergyTransfer:Zone:BREAK_ROOM_70 [J]
Zone,Meter,General:Heating:EnergyTransfer:Zone:BREAK_ROOM_70 [J]
Zone,Meter,Cooling:EnergyTransfer:Zone:BREAK_ROOM_70 [J]
Zone,Meter,General:Cooling:EnergyTransfer:Zone:BREAK_ROOM_70 [J]
Zone,Meter,EnergyTransfer:Zone:STORAGE_85 [J]
Zone,Meter,Heating:EnergyTransfer:Zone:STORAGE_85 [J]
Zone,Meter,General:Heating:EnergyTransfer:Zone:STORAGE_85 [J]
Zone,Meter,Cooling:EnergyTransfer:Zone:STORAGE_85 [J]
Zone,Meter,General:Cooling:EnergyTransfer:Zone:STORAGE_85 [J]
Zone,Meter,EnergyTransfer:HVAC [J]
Zone,Meter,HeatingCoils:EnergyTransfer [J]
Zone,Meter,Electricity:HVAC [J]
Zone,Meter,Heating:Electricity [J]
Zone,Meter,General:Heating:Electricity [J]
Zone,Meter,Fans:Electricity [J]
Zone,Meter,General:Fans:Electricity [J]
Zone,Meter,CoolingCoils:EnergyTransfer [J]
Zone,Meter,Cooling:Electricity [J]
Zone,Meter,General:Cooling:Electricity [J]
Zone,Meter,ElectricityPurchased:Facility [J]
Zone,Meter,ElectricityPurchased:Plant [J]
Zone,Meter,Cogeneration:ElectricityPurchased [J]
Zone,Meter,General:Cogeneration:ElectricityPurchased [J]
Zone,Meter,ElectricitySurplusSold:Facility [J]
Zone,Meter,ElectricitySurplusSold:Plant [J]
Zone,Meter,Cogeneration:ElectricitySurplusSold [J]
Zone,Meter,General:Cogeneration:ElectricitySurplusSold [J]
Zone,Meter,ElectricityNet:Facility [J]
Zone,Meter,ElectricityNet:Plant [J]
Zone,Meter,Cogeneration:ElectricityNet [J]
Zone,Meter,General:Cogeneration:ElectricityNet [J]
Zone,Meter,Carbon Equivalent:Facility [kg]
Zone,Meter,CarbonEquivalentEmissions:Carbon Equivalent [kg]
