Program Version,EnergyPlus, Version 24.2.0-94a887817b, YMD=2025.11.01 00:10
! This file shows details about the branches, nodes, and other
! elements of the flow connections.
! This file is intended for use in "debugging" potential problems
! that may also be detected by the program, but may be more easily
! identified by "eye".
! This file is also intended to support software which draws a
! schematic diagram of the HVAC system.
! ===============================================================
! #Nodes,<Number of Unique Nodes>
 #Nodes,55
! <Node>,<NodeNumber>,<Node Name>,<Node Fluid Type>,<# Times Node Referenced After Definition>
 Node,1,CONFERENCE_0_Z1_ADUOUTLET,Air,4
 Node,2,BREAK_ROOM_0_Z2_ADUOUTLET,Air,4
 Node,3,CONFERENCE_1_Z3_ADUOUTLET,Air,4
 Node,4,MECHANICAL_1_Z4_ADUOUTLET,Air,4
 Node,5,STORAGE_1_Z5_ADUOUTLET,Air,4
 Node,6,CONFERENCE_0_Z1_SUPPLYINLET,Air,3
 Node,7,CONFERENCE_0_Z1_COOLC-HEATCNODE,Air,6
 Node,8,CONFERENCE_0_Z1_HEATC-FANNODE,Air,5
 Node,9,CONFERENCE_0_Z1_SUPPLYEQUIPMENTOUTLETNODE,Air,3
 Node,10,BREAK_ROOM_0_Z2_SUPPLYINLET,Air,3
 Node,11,BREAK_ROOM_0_Z2_COOLC-HEATCNODE,Air,6
 Node,12,BREAK_ROOM_0_Z2_HEATC-FANNODE,Air,5
 Node,13,BREAK_ROOM_0_Z2_SUPPLYEQUIPMENTOUTLETNODE,Air,3
 Node,14,CONFERENCE_1_Z3_SUPPLYINLET,Air,3
 Node,15,CONFERENCE_1_Z3_COOLC-HEATCNODE,Air,6
 Node,16,CONFERENCE_1_Z3_HEATC-FANNODE,Air,5
 Node,17,CONFERENCE_1_Z3_SUPPLYEQUIPMENTOUTLETNODE,Air,3
 Node,18,MECHANICAL_1_Z4_SUPPLYINLET,Air,3
 Node,19,MECHANICAL_1_Z4_COOLC-HEATCNODE,Air,6
 Node,20,MECHANICAL_1_Z4_HEATC-FANNODE,Air,5
 Node,21,MECHANICAL_1_Z4_SUPPLYEQUIPMENTOUTLETNODE,Air,3
 Node,22,STORAGE_1_Z5_SUPPLYINLET,Air,3
 Node,23,STORAGE_1_Z5_COOLC-HEATCNODE,Air,6
 Node,24,STORAGE_1_Z5_HEATC-FANNODE,Air,5
 Node,25,STORAGE_1_Z5_SUPPLYEQUIPMENTOUTLETNODE,Air,3
 Node,26,CONFERENCE_0 AIR NODE,Air,0
 Node,27,CONFERENCE_0_Z1_RETURNAIR,Air,1
 Node,28,BREAK_ROOM_0 AIR NODE,Air,0
 Node,29,BREAK_ROOM_0_Z2_RETURNAIR,Air,1
 Node,30,CONFERENCE_1 AIR NODE,Air,0
 Node,31,CONFERENCE_1_Z3_RETURNAIR,Air,1
 Node,32,MECHANICAL_1 AIR NODE,Air,0
 Node,33,MECHANICAL_1_Z4_RETURNAIR,Air,1
 Node,34,STORAGE_1 AIR NODE,Air,0
 Node,35,STORAGE_1_Z5_RETURNAIR,Air,1
 Node,36,CONFERENCE_0_Z1_ZONEEQUIPMENTINLET,Air,2
 Node,37,BREAK_ROOM_0_Z2_ZONEEQUIPMENTINLET,Air,2
 Node,38,CONFERENCE_1_Z3_ZONEEQUIPMENTINLET,Air,2
 Node,39,MECHANICAL_1_Z4_ZONEEQUIPMENTINLET,Air,2
 Node,40,STORAGE_1_Z5_ZONEEQUIPMENTINLET,Air,2
 Node,41,CONFERENCE_0_Z1_ZONEEQUIPMENTOUTLETNODE,Air,2
 Node,42,BREAK_ROOM_0_Z2_ZONEEQUIPMENTOUTLETNODE,Air,2
 Node,43,CONFERENCE_1_Z3_ZONEEQUIPMENTOUTLETNODE,Air,2
 Node,44,MECHANICAL_1_Z4_ZONEEQUIPMENTOUTLETNODE,Air,2
 Node,45,STORAGE_1_Z5_ZONEEQUIPMENTOUTLETNODE,Air,2
 Node,46,CONFERENCE_0_Z1_TERMINALINLET,Air,1
 Node,47,BREAK_ROOM_0_Z2_TERMINALINLET,Air,1
 Node,48,CONFERENCE_1_Z3_TERMINALINLET,Air,1
 Node,49,MECHANICAL_1_Z4_TERMINALINLET,Air,1
 Node,50,STORAGE_1_Z5_TERMINALINLET,Air,1
 Node,51,CONFERENCE_0_Z1_TERMINALOUTLET,Air,1
 Node,52,BREAK_ROOM_0_Z2_TERMINALOUTLET,Air,1
 Node,53,CONFERENCE_1_Z3_TERMINALOUTLET,Air,1
 Node,54,MECHANICAL_1_Z4_TERMINALOUTLET,Air,1
 Node,55,STORAGE_1_Z5_TERMINALOUTLET,Air,1
! ===============================================================
! Suspicious nodes have 0 references.  It is normal for some nodes, however.
! Listing nodes with 0 references (culled from previous list):
! <Suspicious Node>,<NodeNumber>,<Node Name>,<Node Fluid Type>,<# Times Node Referenced After Definition>
 Suspicious Node,26,CONFERENCE_0 AIR NODE,Air,0
 Suspicious Node,28,BREAK_ROOM_0 AIR NODE,Air,0
 Suspicious Node,30,CONFERENCE_1 AIR NODE,Air,0
 Suspicious Node,32,MECHANICAL_1 AIR NODE,Air,0
 Suspicious Node,34,STORAGE_1 AIR NODE,Air,0
! ===============================================================
! <#Branch Lists>,<Number of Branch Lists>
 #Branch Lists,5
! <Branch List>,<Branch List Count>,<Branch List Name>,<Loop Name>,<Loop Type>,<Number of Branches>
! <Branch>,<Branch Count>,<Branch Name>,<Loop Name>,<Loop Type>,<Branch Inlet Node Name>,<Branch Outlet Node Name>
 Branch List,1,CONFERENCE_0_Z1_BRANCHLIST,CONFERENCE_0_Z1_AIRLOOP,Air,1
   Branch,1,CONFERENCE_0_Z1_MAINBRANCH,CONFERENCE_0_Z1_AIRLOOP,Air,CONFERENCE_0_Z1_SUPPLYINLET,CONFERENCE_0_Z1_SUPPLYEQUIPMENTOUTLETNODE
 Branch List,2,BREAK_ROOM_0_Z2_BRANCHLIST,BREAK_ROOM_0_Z2_AIRLOOP,Air,1
   Branch,1,BREAK_ROOM_0_Z2_MAINBRANCH,BREAK_ROOM_0_Z2_AIRLOOP,Air,BREAK_ROOM_0_Z2_SUPPLYINLET,BREAK_ROOM_0_Z2_SUPPLYEQUIPMENTOUTLETNODE
 Branch List,3,CONFERENCE_1_Z3_BRANCHLIST,CONFERENCE_1_Z3_AIRLOOP,Air,1
   Branch,1,CONFERENCE_1_Z3_MAINBRANCH,CONFERENCE_1_Z3_AIRLOOP,Air,CONFERENCE_1_Z3_SUPPLYINLET,CONFERENCE_1_Z3_SUPPLYEQUIPMENTOUTLETNODE
 Branch List,4,MECHANICAL_1_Z4_BRANCHLIST,MECHANICAL_1_Z4_AIRLOOP,Air,1
   Branch,1,MECHANICAL_1_Z4_MAINBRANCH,MECHANICAL_1_Z4_AIRLOOP,Air,MECHANICAL_1_Z4_SUPPLYINLET,MECHANICAL_1_Z4_SUPPLYEQUIPMENTOUTLETNODE
 Branch List,5,STORAGE_1_Z5_BRANCHLIST,STORAGE_1_Z5_AIRLOOP,Air,1
   Branch,1,STORAGE_1_Z5_MAINBRANCH,STORAGE_1_Z5_AIRLOOP,Air,STORAGE_1_Z5_SUPPLYINLET,STORAGE_1_Z5_SUPPLYEQUIPMENTOUTLETNODE
! ===============================================================
! <#Supply Air Paths>,<Number of Supply Air Paths>
 #Supply Air Paths,5
! <Supply Air Path>,<Supply Air Path Count>,<Supply Air Path Name>,<AirLoopHVAC Name>
! <#Components on Supply Air Path>,<Number of Components>
! <Supply Air Path Component>,<Component Count>,<Component Type>,<Component Name>,<AirLoopHVAC Name>
! <#Outlet Nodes on Supply Air Path Component>,<Number of Nodes>
! <Supply Air Path Component Nodes>,<Node Count>,<Component Type>,<Component Name>,<Inlet Node Name>,<Outlet Node Name>,<AirLoopHVAC Name>
 Supply Air Path,1,CONFERENCE_0_Z1,CONFERENCE_0_Z1_AIRLOOP
   #Components on Supply Air Path,1
   Supply Air Path Component,1,AIRLOOPHVAC:ZONESPLITTER,CONFERENCE_0_Z1_SUPPLYSPLITTER,CONFERENCE_0_Z1_AIRLOOP
     #Outlet Nodes on Supply Air Path Component,1
     Supply Air Path Component Nodes,1,AIRLOOPHVAC:ZONESPLITTER,CONFERENCE_0_Z1_SUPPLYSPLITTER,CONFERENCE_0_Z1_ZONEEQUIPMENTINLET,CONFERENCE_0_Z1_TERMINALINLET,CONFERENCE_0_Z1_AIRLOOP
! <#Nodes on Supply Air Path>,<Number of Nodes>
! <Supply Air Path Node>,<Node Type>,<Node Count>,<Node Name>,<AirLoopHVAC Name>
#Nodes on Supply Air Path,2
   Supply Air Path Node,Inlet Node,1,CONFERENCE_0_Z1_ZONEEQUIPMENTINLET,CONFERENCE_0_Z1_AIRLOOP
   Supply Air Path Node,Outlet Node,2,CONFERENCE_0_Z1_TERMINALINLET,CONFERENCE_0_Z1_AIRLOOP
 Supply Air Path,2,BREAK_ROOM_0_Z2,BREAK_ROOM_0_Z2_AIRLOOP
   #Components on Supply Air Path,1
   Supply Air Path Component,1,AIRLOOPHVAC:ZONESPLITTER,BREAK_ROOM_0_Z2_SUPPLYSPLITTER,BREAK_ROOM_0_Z2_AIRLOOP
     #Outlet Nodes on Supply Air Path Component,1
     Supply Air Path Component Nodes,1,AIRLOOPHVAC:ZONESPLITTER,BREAK_ROOM_0_Z2_SUPPLYSPLITTER,BREAK_ROOM_0_Z2_ZONEEQUIPMENTINLET,BREAK_ROOM_0_Z2_TERMINALINLET,BREAK_ROOM_0_Z2_AIRLOOP
! <#Nodes on Supply Air Path>,<Number of Nodes>
! <Supply Air Path Node>,<Node Type>,<Node Count>,<Node Name>,<AirLoopHVAC Name>
#Nodes on Supply Air Path,2
   Supply Air Path Node,Inlet Node,1,BREAK_ROOM_0_Z2_ZONEEQUIPMENTINLET,BREAK_ROOM_0_Z2_AIRLOOP
   Supply Air Path Node,Outlet Node,2,BREAK_ROOM_0_Z2_TERMINALINLET,BREAK_ROOM_0_Z2_AIRLOOP
 Supply Air Path,3,CONFERENCE_1_Z3,CONFERENCE_1_Z3_AIRLOOP
   #Components on Supply Air Path,1
   Supply Air Path Component,1,AIRLOOPHVAC:ZONESPLITTER,CONFERENCE_1_Z3_SUPPLYSPLITTER,CONFERENCE_1_Z3_AIRLOOP
     #Outlet Nodes on Supply Air Path Component,1
     Supply Air Path Component Nodes,1,AIRLOOPHVAC:ZONESPLITTER,CONFERENCE_1_Z3_SUPPLYSPLITTER,CONFERENCE_1_Z3_ZONEEQUIPMENTINLET,CONFERENCE_1_Z3_TERMINALINLET,CONFERENCE_1_Z3_AIRLOOP
! <#Nodes on Supply Air Path>,<Number of Nodes>
! <Supply Air Path Node>,<Node Type>,<Node Count>,<Node Name>,<AirLoopHVAC Name>
#Nodes on Supply Air Path,2
   Supply Air Path Node,Inlet Node,1,CONFERENCE_1_Z3_ZONEEQUIPMENTINLET,CONFERENCE_1_Z3_AIRLOOP
   Supply Air Path Node,Outlet Node,2,CONFERENCE_1_Z3_TERMINALINLET,CONFERENCE_1_Z3_AIRLOOP
 Supply Air Path,4,MECHANICAL_1_Z4,MECHANICAL_1_Z4_AIRLOOP
   #Components on Supply Air Path,1
   Supply Air Path Component,1,AIRLOOPHVAC:ZONESPLITTER,MECHANICAL_1_Z4_SUPPLYSPLITTER,MECHANICAL_1_Z4_AIRLOOP
     #Outlet Nodes on Supply Air Path Component,1
     Supply Air Path Component Nodes,1,AIRLOOPHVAC:ZONESPLITTER,MECHANICAL_1_Z4_SUPPLYSPLITTER,MECHANICAL_1_Z4_ZONEEQUIPMENTINLET,MECHANICAL_1_Z4_TERMINALINLET,MECHANICAL_1_Z4_AIRLOOP
! <#Nodes on Supply Air Path>,<Number of Nodes>
! <Supply Air Path Node>,<Node Type>,<Node Count>,<Node Name>,<AirLoopHVAC Name>
#Nodes on Supply Air Path,2
   Supply Air Path Node,Inlet Node,1,MECHANICAL_1_Z4_ZONEEQUIPMENTINLET,MECHANICAL_1_Z4_AIRLOOP
   Supply Air Path Node,Outlet Node,2,MECHANICAL_1_Z4_TERMINALINLET,MECHANICAL_1_Z4_AIRLOOP
 Supply Air Path,5,STORAGE_1_Z5,STORAGE_1_Z5_AIRLOOP
   #Components on Supply Air Path,1
   Supply Air Path Component,1,AIRLOOPHVAC:ZONESPLITTER,STORAGE_1_Z5_SUPPLYSPLITTER,STORAGE_1_Z5_AIRLOOP
     #Outlet Nodes on Supply Air Path Component,1
     Supply Air Path Component Nodes,1,AIRLOOPHVAC:ZONESPLITTER,STORAGE_1_Z5_SUPPLYSPLITTER,STORAGE_1_Z5_ZONEEQUIPMENTINLET,STORAGE_1_Z5_TERMINALINLET,STORAGE_1_Z5_AIRLOOP
! <#Nodes on Supply Air Path>,<Number of Nodes>
! <Supply Air Path Node>,<Node Type>,<Node Count>,<Node Name>,<AirLoopHVAC Name>
#Nodes on Supply Air Path,2
   Supply Air Path Node,Inlet Node,1,STORAGE_1_Z5_ZONEEQUIPMENTINLET,STORAGE_1_Z5_AIRLOOP
   Supply Air Path Node,Outlet Node,2,STORAGE_1_Z5_TERMINALINLET,STORAGE_1_Z5_AIRLOOP
! ===============================================================
! <#Return Air Paths>,<Number of Return Air Paths>
 #Return Air Paths,5
! <Return Air Path>,<Return Air Path Count>,<Return Air Path Name>,<AirLoopHVAC Name>
! <#Components on Return Air Path>,<Number of Components>
! <Return Air Path Component>,<Component Count>,<Component Type>,<Component Name>,<AirLoopHVAC Name>
! <#Inlet Nodes on Return Air Path Component>,<Number of Nodes>
! <Return Air Path Component Nodes>,<Node Count>,<Component Type>,<Component Name>,<Inlet Node Name>,<Outlet Node Name>,<AirLoopHVAC Name>
 Return Air Path,1,CONFERENCE_0_Z1_RETURNAIRPATH,CONFERENCE_0_Z1_AIRLOOP
   #Components on Return Air Path,1
   Return Air Path Component,1,AIRLOOPHVAC:ZONEMIXER,CONFERENCE_0_Z1_RETURNAIRMIXER,CONFERENCE_0_Z1_AIRLOOP
     #Inlet Nodes on Return Air Path Component,1
     Return Air Path Component Nodes,1,AIRLOOPHVAC:ZONEMIXER,CONFERENCE_0_Z1_RETURNAIRMIXER,CONFERENCE_0_Z1_RETURNAIR,CONFERENCE_0_Z1_ZONEEQUIPMENTOUTLETNODE,CONFERENCE_0_Z1_AIRLOOP
! <#Nodes on Return Air Path>,<Number of Nodes>
! <Return Air Path Node>,<Node Type>,<Node Count>,<Node Name>,<AirLoopHVAC Name>
   #Nodes on Return Air Path,2
   Return Air Path Node,Outlet Node,1,CONFERENCE_0_Z1_ZONEEQUIPMENTOUTLETNODE,CONFERENCE_0_Z1_AIRLOOP
   Return Air Path Node,Inlet Node,2,CONFERENCE_0_Z1_RETURNAIR,CONFERENCE_0_Z1_AIRLOOP
 Return Air Path,2,BREAK_ROOM_0_Z2_RETURNAIRPATH,BREAK_ROOM_0_Z2_AIRLOOP
   #Components on Return Air Path,1
   Return Air Path Component,1,AIRLOOPHVAC:ZONEMIXER,BREAK_ROOM_0_Z2_RETURNAIRMIXER,BREAK_ROOM_0_Z2_AIRLOOP
     #Inlet Nodes on Return Air Path Component,1
     Return Air Path Component Nodes,1,AIRLOOPHVAC:ZONEMIXER,BREAK_ROOM_0_Z2_RETURNAIRMIXER,BREAK_ROOM_0_Z2_RETURNAIR,BREAK_ROOM_0_Z2_ZONEEQUIPMENTOUTLETNODE,BREAK_ROOM_0_Z2_AIRLOOP
! <#Nodes on Return Air Path>,<Number of Nodes>
! <Return Air Path Node>,<Node Type>,<Node Count>,<Node Name>,<AirLoopHVAC Name>
   #Nodes on Return Air Path,2
   Return Air Path Node,Outlet Node,1,BREAK_ROOM_0_Z2_ZONEEQUIPMENTOUTLETNODE,BREAK_ROOM_0_Z2_AIRLOOP
   Return Air Path Node,Inlet Node,2,BREAK_ROOM_0_Z2_RETURNAIR,BREAK_ROOM_0_Z2_AIRLOOP
 Return Air Path,3,CONFERENCE_1_Z3_RETURNAIRPATH,CONFERENCE_1_Z3_AIRLOOP
   #Components on Return Air Path,1
   Return Air Path Component,1,AIRLOOPHVAC:ZONEMIXER,CONFERENCE_1_Z3_RETURNAIRMIXER,CONFERENCE_1_Z3_AIRLOOP
     #Inlet Nodes on Return Air Path Component,1
     Return Air Path Component Nodes,1,AIRLOOPHVAC:ZONEMIXER,CONFERENCE_1_Z3_RETURNAIRMIXER,CONFERENCE_1_Z3_RETURNAIR,CONFERENCE_1_Z3_ZONEEQUIPMENTOUTLETNODE,CONFERENCE_1_Z3_AIRLOOP
! <#Nodes on Return Air Path>,<Number of Nodes>
! <Return Air Path Node>,<Node Type>,<Node Count>,<Node Name>,<AirLoopHVAC Name>
   #Nodes on Return Air Path,2
   Return Air Path Node,Outlet Node,1,CONFERENCE_1_Z3_ZONEEQUIPMENTOUTLETNODE,CONFERENCE_1_Z3_AIRLOOP
   Return Air Path Node,Inlet Node,2,CONFERENCE_1_Z3_RETURNAIR,CONFERENCE_1_Z3_AIRLOOP
 Return Air Path,4,MECHANICAL_1_Z4_RETURNAIRPATH,MECHANICAL_1_Z4_AIRLOOP
   #Components on Return Air Path,1
   Return Air Path Component,1,AIRLOOPHVAC:ZONEMIXER,MECHANICAL_1_Z4_RETURNAIRMIXER,MECHANICAL_1_Z4_AIRLOOP
     #Inlet Nodes on Return Air Path Component,1
     Return Air Path Component Nodes,1,AIRLOOPHVAC:ZONEMIXER,MECHANICAL_1_Z4_RETURNAIRMIXER,MECHANICAL_1_Z4_RETURNAIR,MECHANICAL_1_Z4_ZONEEQUIPMENTOUTLETNODE,MECHANICAL_1_Z4_AIRLOOP
! <#Nodes on Return Air Path>,<Number of Nodes>
! <Return Air Path Node>,<Node Type>,<Node Count>,<Node Name>,<AirLoopHVAC Name>
   #Nodes on Return Air Path,2
   Return Air Path Node,Outlet Node,1,MECHANICAL_1_Z4_ZONEEQUIPMENTOUTLETNODE,MECHANICAL_1_Z4_AIRLOOP
   Return Air Path Node,Inlet Node,2,MECHANICAL_1_Z4_RETURNAIR,MECHANICAL_1_Z4_AIRLOOP
 Return Air Path,5,STORAGE_1_Z5_RETURNAIRPATH,STORAGE_1_Z5_AIRLOOP
   #Components on Return Air Path,1
   Return Air Path Component,1,AIRLOOPHVAC:ZONEMIXER,STORAGE_1_Z5_RETURNAIRMIXER,STORAGE_1_Z5_AIRLOOP
     #Inlet Nodes on Return Air Path Component,1
     Return Air Path Component Nodes,1,AIRLOOPHVAC:ZONEMIXER,STORAGE_1_Z5_RETURNAIRMIXER,STORAGE_1_Z5_RETURNAIR,STORAGE_1_Z5_ZONEEQUIPMENTOUTLETNODE,STORAGE_1_Z5_AIRLOOP
! <#Nodes on Return Air Path>,<Number of Nodes>
! <Return Air Path Node>,<Node Type>,<Node Count>,<Node Name>,<AirLoopHVAC Name>
   #Nodes on Return Air Path,2
   Return Air Path Node,Outlet Node,1,STORAGE_1_Z5_ZONEEQUIPMENTOUTLETNODE,STORAGE_1_Z5_AIRLOOP
   Return Air Path Node,Inlet Node,2,STORAGE_1_Z5_RETURNAIR,STORAGE_1_Z5_AIRLOOP
! ===============================================================
! #Outdoor Air Nodes,<Number of Outdoor Air Nodes>
 #Outdoor Air Nodes,0
! ===============================================================
! <#Component Sets>,<Number of Component Sets>
 #Component Sets,30
! <Component Set>,<Component Set Count>,<Parent Object Type>,<Parent Object Name>,<Component Type>,<Component Name>,<Inlet Node ID>,<Outlet Node ID>,<Description>
 Component Set,1,BRANCH,CONFERENCE_0_Z1_MAINBRANCH,COILSYSTEM:COOLING:DX,CONFERENCE_0_Z1_COOLINGCOIL,CONFERENCE_0_Z1_SUPPLYINLET,CONFERENCE_0_Z1_COOLC-HEATCNODE,Air Nodes
 Component Set,2,BRANCH,CONFERENCE_0_Z1_MAINBRANCH,COIL:HEATING:ELECTRIC,CONFERENCE_0_Z1_HEATINGCOIL,CONFERENCE_0_Z1_COOLC-HEATCNODE,CONFERENCE_0_Z1_HEATC-FANNODE,Air Nodes
 Component Set,3,BRANCH,CONFERENCE_0_Z1_MAINBRANCH,FAN:VARIABLEVOLUME,CONFERENCE_0_Z1_SUPPLYFAN,CONFERENCE_0_Z1_HEATC-FANNODE,CONFERENCE_0_Z1_SUPPLYEQUIPMENTOUTLETNODE,Air Nodes
 Component Set,4,BRANCH,BREAK_ROOM_0_Z2_MAINBRANCH,COILSYSTEM:COOLING:DX,BREAK_ROOM_0_Z2_COOLINGCOIL,BREAK_ROOM_0_Z2_SUPPLYINLET,BREAK_ROOM_0_Z2_COOLC-HEATCNODE,Air Nodes
 Component Set,5,BRANCH,BREAK_ROOM_0_Z2_MAINBRANCH,COIL:HEATING:ELECTRIC,BREAK_ROOM_0_Z2_HEATINGCOIL,BREAK_ROOM_0_Z2_COOLC-HEATCNODE,BREAK_ROOM_0_Z2_HEATC-FANNODE,Air Nodes
 Component Set,6,BRANCH,BREAK_ROOM_0_Z2_MAINBRANCH,FAN:VARIABLEVOLUME,BREAK_ROOM_0_Z2_SUPPLYFAN,BREAK_ROOM_0_Z2_HEATC-FANNODE,BREAK_ROOM_0_Z2_SUPPLYEQUIPMENTOUTLETNODE,Air Nodes
 Component Set,7,BRANCH,CONFERENCE_1_Z3_MAINBRANCH,COILSYSTEM:COOLING:DX,CONFERENCE_1_Z3_COOLINGCOIL,CONFERENCE_1_Z3_SUPPLYINLET,CONFERENCE_1_Z3_COOLC-HEATCNODE,Air Nodes
 Component Set,8,BRANCH,CONFERENCE_1_Z3_MAINBRANCH,COIL:HEATING:ELECTRIC,CONFERENCE_1_Z3_HEATINGCOIL,CONFERENCE_1_Z3_COOLC-HEATCNODE,CONFERENCE_1_Z3_HEATC-FANNODE,Air Nodes
 Component Set,9,BRANCH,CONFERENCE_1_Z3_MAINBRANCH,FAN:VARIABLEVOLUME,CONFERENCE_1_Z3_SUPPLYFAN,CONFERENCE_1_Z3_HEATC-FANNODE,CONFERENCE_1_Z3_SUPPLYEQUIPMENTOUTLETNODE,Air Nodes
 Component Set,10,BRANCH,MECHANICAL_1_Z4_MAINBRANCH,COILSYSTEM:COOLING:DX,MECHANICAL_1_Z4_COOLINGCOIL,MECHANICAL_1_Z4_SUPPLYINLET,MECHANICAL_1_Z4_COOLC-HEATCNODE,Air Nodes
 Component Set,11,BRANCH,MECHANICAL_1_Z4_MAINBRANCH,COIL:HEATING:ELECTRIC,MECHANICAL_1_Z4_HEATINGCOIL,MECHANICAL_1_Z4_COOLC-HEATCNODE,MECHANICAL_1_Z4_HEATC-FANNODE,Air Nodes
 Component Set,12,BRANCH,MECHANICAL_1_Z4_MAINBRANCH,FAN:VARIABLEVOLUME,MECHANICAL_1_Z4_SUPPLYFAN,MECHANICAL_1_Z4_HEATC-FANNODE,MECHANICAL_1_Z4_SUPPLYEQUIPMENTOUTLETNODE,Air Nodes
 Component Set,13,BRANCH,STORAGE_1_Z5_MAINBRANCH,COILSYSTEM:COOLING:DX,STORAGE_1_Z5_COOLINGCOIL,STORAGE_1_Z5_SUPPLYINLET,STORAGE_1_Z5_COOLC-HEATCNODE,Air Nodes
 Component Set,14,BRANCH,STORAGE_1_Z5_MAINBRANCH,COIL:HEATING:ELECTRIC,STORAGE_1_Z5_HEATINGCOIL,STORAGE_1_Z5_COOLC-HEATCNODE,STORAGE_1_Z5_HEATC-FANNODE,Air Nodes
 Component Set,15,BRANCH,STORAGE_1_Z5_MAINBRANCH,FAN:VARIABLEVOLUME,STORAGE_1_Z5_SUPPLYFAN,STORAGE_1_Z5_HEATC-FANNODE,STORAGE_1_Z5_SUPPLYEQUIPMENTOUTLETNODE,Air Nodes
 Component Set,16,ZONEHVAC:AIRDISTRIBUTIONUNIT,CONFERENCE_0_Z1_ADU,AIRTERMINAL:SINGLEDUCT:VAV:REHEAT,CONFERENCE_0_Z1_VAVTERMINAL,CONFERENCE_0_Z1_TERMINALINLET,CONFERENCE_0_Z1_ADUOUTLET,Air Nodes
 Component Set,17,ZONEHVAC:AIRDISTRIBUTIONUNIT,BREAK_ROOM_0_Z2_ADU,AIRTERMINAL:SINGLEDUCT:VAV:REHEAT,BREAK_ROOM_0_Z2_VAVTERMINAL,BREAK_ROOM_0_Z2_TERMINALINLET,BREAK_ROOM_0_Z2_ADUOUTLET,Air Nodes
 Component Set,18,ZONEHVAC:AIRDISTRIBUTIONUNIT,CONFERENCE_1_Z3_ADU,AIRTERMINAL:SINGLEDUCT:VAV:REHEAT,CONFERENCE_1_Z3_VAVTERMINAL,CONFERENCE_1_Z3_TERMINALINLET,CONFERENCE_1_Z3_ADUOUTLET,Air Nodes
 Component Set,19,ZONEHVAC:AIRDISTRIBUTIONUNIT,MECHANICAL_1_Z4_ADU,AIRTERMINAL:SINGLEDUCT:VAV:REHEAT,MECHANICAL_1_Z4_VAVTERMINAL,MECHANICAL_1_Z4_TERMINALINLET,MECHANICAL_1_Z4_ADUOUTLET,Air Nodes
 Component Set,20,ZONEHVAC:AIRDISTRIBUTIONUNIT,STORAGE_1_Z5_ADU,AIRTERMINAL:SINGLEDUCT:VAV:REHEAT,STORAGE_1_Z5_VAVTERMINAL,STORAGE_1_Z5_TERMINALINLET,STORAGE_1_Z5_ADUOUTLET,Air Nodes
 Component Set,21,AIRTERMINAL:SINGLEDUCT:VAV:REHEAT,CONFERENCE_0_Z1_VAVTERMINAL,COIL:HEATING:ELECTRIC,CONFERENCE_0_Z1_REHEATCOIL,CONFERENCE_0_Z1_TERMINALOUTLET,CONFERENCE_0_Z1_ADUOUTLET,Air Nodes
 Component Set,22,AIRTERMINAL:SINGLEDUCT:VAV:REHEAT,BREAK_ROOM_0_Z2_VAVTERMINAL,COIL:HEATING:ELECTRIC,BREAK_ROOM_0_Z2_REHEATCOIL,BREAK_ROOM_0_Z2_TERMINALOUTLET,BREAK_ROOM_0_Z2_ADUOUTLET,Air Nodes
 Component Set,23,AIRTERMINAL:SINGLEDUCT:VAV:REHEAT,CONFERENCE_1_Z3_VAVTERMINAL,COIL:HEATING:ELECTRIC,CONFERENCE_1_Z3_REHEATCOIL,CONFERENCE_1_Z3_TERMINALOUTLET,CONFERENCE_1_Z3_ADUOUTLET,Air Nodes
 Component Set,24,AIRTERMINAL:SINGLEDUCT:VAV:REHEAT,MECHANICAL_1_Z4_VAVTERMINAL,COIL:HEATING:ELECTRIC,MECHANICAL_1_Z4_REHEATCOIL,MECHANICAL_1_Z4_TERMINALOUTLET,MECHANICAL_1_Z4_ADUOUTLET,Air Nodes
 Component Set,25,AIRTERMINAL:SINGLEDUCT:VAV:REHEAT,STORAGE_1_Z5_VAVTERMINAL,COIL:HEATING:ELECTRIC,STORAGE_1_Z5_REHEATCOIL,STORAGE_1_Z5_TERMINALOUTLET,STORAGE_1_Z5_ADUOUTLET,Air Nodes
 Component Set,26,COILSYSTEM:COOLING:DX,CONFERENCE_0_Z1_COOLINGCOIL,COIL:COOLING:DX:SINGLESPEED,CONFERENCE_0_Z1_COOLINGCOILDX,CONFERENCE_0_Z1_SUPPLYINLET,CONFERENCE_0_Z1_COOLC-HEATCNODE,Air Nodes
 Component Set,27,COILSYSTEM:COOLING:DX,BREAK_ROOM_0_Z2_COOLINGCOIL,COIL:COOLING:DX:SINGLESPEED,BREAK_ROOM_0_Z2_COOLINGCOILDX,BREAK_ROOM_0_Z2_SUPPLYINLET,BREAK_ROOM_0_Z2_COOLC-HEATCNODE,Air Nodes
 Component Set,28,COILSYSTEM:COOLING:DX,CONFERENCE_1_Z3_COOLINGCOIL,COIL:COOLING:DX:SINGLESPEED,CONFERENCE_1_Z3_COOLINGCOILDX,CONFERENCE_1_Z3_SUPPLYINLET,CONFERENCE_1_Z3_COOLC-HEATCNODE,Air Nodes
 Component Set,29,COILSYSTEM:COOLING:DX,MECHANICAL_1_Z4_COOLINGCOIL,COIL:COOLING:DX:SINGLESPEED,MECHANICAL_1_Z4_COOLINGCOILDX,MECHANICAL_1_Z4_SUPPLYINLET,MECHANICAL_1_Z4_COOLC-HEATCNODE,Air Nodes
 Component Set,30,COILSYSTEM:COOLING:DX,STORAGE_1_Z5_COOLINGCOIL,COIL:COOLING:DX:SINGLESPEED,STORAGE_1_Z5_COOLINGCOILDX,STORAGE_1_Z5_SUPPLYINLET,STORAGE_1_Z5_COOLC-HEATCNODE,Air Nodes
! ===============================================================
! <# Plant Loops>,<Number of Plant Loops>
 #Plant Loops,0
! <Plant Loop>,<Plant Loop Name>,<Loop Type>,<Inlet Node Name>,<Outlet Node Name>,<Branch List>,<Connector List>
! <Plant Loop Connector>,<Connector Type>,<Connector Name>,<Loop Name>,<Loop Type>,<Number of Inlets/Outlets>
! <Plant Loop Connector Branches>,<Connector Node Count>,<Connector Type>,<Connector Name>,<Inlet Branch>,<Outlet Branch>,<Loop Name>,<Loop Type>
! <Plant Loop Connector Nodes>,<Connector Node Count>,<Connector Type>,<Connector Name>,<Inlet Node>,<Outlet Node>,<Loop Name>,<Loop Type>
! <Plant Loop Supply Connection>,<Plant Loop Name>,<Supply Side Outlet Node Name>,<Demand Side Inlet Node Name>
! <Plant Loop Return Connection>,<Plant Loop Name>,<Demand Side Outlet Node Name>,<Supply Side Inlet Node Name>
! ===============================================================
! <# Condenser Loops>,<Number of Condenser Loops>
 #Condenser Loops,0
! <Condenser Loop>,<Condenser Loop Name>,<Loop Type>,<Inlet Node Name>,<Outlet Node Name>,<Branch List>,<Connector List>
! <Condenser Loop Connector>,<Connector Type>,<Connector Name>,<Loop Name>,<Loop Type>,<Number of Inlets/Outlets>
! <Condenser Loop Connector Branches>,<Connector Node Count>,<Connector Type>,<Connector Name>,<Inlet Branch>,<Outlet Branch>,<Loop Name>,<Loop Type>
! <Condenser Loop Connector Nodes>,<Connector Node Count>,<Connector Type>,<Connector Name>,<Inlet Node>,<Outlet Node>,<Loop Name>,<Loop Type>
! <Condenser Loop Supply Connection>,<Condenser Loop Name>,<Supply Side Outlet Node Name>,<Demand Side Inlet Node Name>
! <Condenser Loop Return Connection>,<Condenser Loop Name>,<Demand Side Outlet Node Name>,<Supply Side Inlet Node Name>
! ===============================================================
! <# Controlled Zones>,<Number of Controlled Zones>
 #Controlled Zones,5
! <Controlled Zone>,<Controlled Zone Name>,<Equip List Name>,<Control List Name>,<Zone Node Name>,<# Inlet Nodes>,<# Exhaust Nodes>,<# Return Nodes>
! <Controlled Zone Inlet>,<Inlet Node Count>,<Controlled Zone Name>,<Supply Air Inlet Node Name>,<SD Sys:Cooling/Heating [DD:Cooling] Inlet Node Name>,<DD Sys:Heating Inlet Node Name>
! <Controlled Zone Exhaust>,<Exhaust Node Count>,<Controlled Zone Name>,<Exhaust Air Node Name>
 Controlled Zone,CONFERENCE_0,CONFERENCE_0_Z1 EQUIPMENT,,CONFERENCE_0 AIR NODE,1,0,1
   Controlled Zone Inlet,1,CONFERENCE_0,CONFERENCE_0_Z1_ADUOUTLET,CONFERENCE_0_Z1_TERMINALINLET,N/A
   Controlled Zone Return,1,CONFERENCE_0,CONFERENCE_0_Z1_RETURNAIR
 Controlled Zone,BREAK_ROOM_0,BREAK_ROOM_0_Z2 EQUIPMENT,,BREAK_ROOM_0 AIR NODE,1,0,1
   Controlled Zone Inlet,1,BREAK_ROOM_0,BREAK_ROOM_0_Z2_ADUOUTLET,BREAK_ROOM_0_Z2_TERMINALINLET,N/A
   Controlled Zone Return,1,BREAK_ROOM_0,BREAK_ROOM_0_Z2_RETURNAIR
 Controlled Zone,CONFERENCE_1,CONFERENCE_1_Z3 EQUIPMENT,,CONFERENCE_1 AIR NODE,1,0,1
   Controlled Zone Inlet,1,CONFERENCE_1,CONFERENCE_1_Z3_ADUOUTLET,CONFERENCE_1_Z3_TERMINALINLET,N/A
   Controlled Zone Return,1,CONFERENCE_1,CONFERENCE_1_Z3_RETURNAIR
 Controlled Zone,MECHANICAL_1,MECHANICAL_1_Z4 EQUIPMENT,,MECHANICAL_1 AIR NODE,1,0,1
   Controlled Zone Inlet,1,MECHANICAL_1,MECHANICAL_1_Z4_ADUOUTLET,MECHANICAL_1_Z4_TERMINALINLET,N/A
   Controlled Zone Return,1,MECHANICAL_1,MECHANICAL_1_Z4_RETURNAIR
 Controlled Zone,STORAGE_1,STORAGE_1_Z5 EQUIPMENT,,STORAGE_1 AIR NODE,1,0,1
   Controlled Zone Inlet,1,STORAGE_1,STORAGE_1_Z5_ADUOUTLET,STORAGE_1_Z5_TERMINALINLET,N/A
   Controlled Zone Return,1,STORAGE_1,STORAGE_1_Z5_RETURNAIR
! ===============================================================
! <#Zone Equipment Lists>,<Number of Zone Equipment Lists>
 #Zone Equipment Lists,5
! <Zone Equipment List>,<Zone Equipment List Count>,<Zone Equipment List Name>,<Zone Name>,<Number of Components>
! <Zone Equipment Component>,<Component Count>,<Component Type>,<Component Name>,<Zone Name>,<Heating Priority>,<Cooling Priority>
 Zone Equipment List,1,CONFERENCE_0_Z1 EQUIPMENT,CONFERENCE_0,1
   Zone Equipment Component,1,ZONEHVAC:AIRDISTRIBUTIONUNIT,CONFERENCE_0_Z1_ADU,CONFERENCE_0,1,1
 Zone Equipment List,2,BREAK_ROOM_0_Z2 EQUIPMENT,BREAK_ROOM_0,1
   Zone Equipment Component,1,ZONEHVAC:AIRDISTRIBUTIONUNIT,BREAK_ROOM_0_Z2_ADU,BREAK_ROOM_0,1,1
 Zone Equipment List,3,CONFERENCE_1_Z3 EQUIPMENT,CONFERENCE_1,1
   Zone Equipment Component,1,ZONEHVAC:AIRDISTRIBUTIONUNIT,CONFERENCE_1_Z3_ADU,CONFERENCE_1,1,1
 Zone Equipment List,4,MECHANICAL_1_Z4 EQUIPMENT,MECHANICAL_1,1
   Zone Equipment Component,1,ZONEHVAC:AIRDISTRIBUTIONUNIT,MECHANICAL_1_Z4_ADU,MECHANICAL_1,1,1
 Zone Equipment List,5,STORAGE_1_Z5 EQUIPMENT,STORAGE_1,1
   Zone Equipment Component,1,ZONEHVAC:AIRDISTRIBUTIONUNIT,STORAGE_1_Z5_ADU,STORAGE_1,1,1
! ===============================================================
! <#AirLoopHVACs>,<Number of AirLoopHVACs>
 #AirLoopHVACs,5
! <AirLoopHVAC>,<Air Loop Name>,<# Return Nodes>,<# Supply Nodes>,<# Zones Cooled>,<# Zones Heated>,<Outdoor Air Used>
! <AirLoop Return Connections>,<Connection Count>,<AirLoopHVAC Name>,<Zn Eqp Return Node #>,<Zn Eqp Return Node Name>,<AirLoop Return Node #>,<Air Loop Return Node Name>
! <AirLoop Supply Connections>,<Connection Count>,<AirLoopHVAC Name>,<Zn Eqp Supply Node #>,<Zn Eqp Supply Node Name>,<AirLoop Supply Node #>,<Air Loop Supply Node Name>
! <Cooled Zone Info>,<Cooled Zone Count>,<Cooled Zone Name>,<Cooled Zone Inlet Node #>,<Cooled Zone Inlet Node Name>,<AirLoopHVAC Name>
! <Heated Zone Info>,<Heated Zone Count>,<Heated Zone Name>,<Heated Zone Inlet Node #>,<Heated Zone Inlet Node Name>,<AirLoopHVAC Name>
! <Outdoor Air Connections>,<OA Inlet Node #>,<OA Return Air Inlet Node Name>,<OA Outlet Node #>,<OA Mixed Air Outlet Node Name>,<AirLoopHVAC Name>
! <AirLoopHVAC Connector>,<Connector Type>,<Connector Name>,<Loop Name>,<Loop Type>,<Number of Inlets/Outlets>
! <AirLoopHVAC Connector Branches>,<Connector Node Count>,<Connector Type>,<Connector Name>,<Inlet Branch>,<Outlet Branch>,<Loop Name>,<Loop Type>
! <AirLoopHVAC Connector Nodes>,<Connector Node Count>,<Connector Type>,<Connector Name>,<Inlet Node>,<Outlet Node>,<Loop Name>,<Loop Type>
 AirLoopHVAC,CONFERENCE_0_Z1_AIRLOOP,1,1,1,0,No
   AirLoop Return Connections,1,CONFERENCE_0_Z1_AIRLOOP,41,CONFERENCE_0_Z1_ZONEEQUIPMENTOUTLETNODE,6,CONFERENCE_0_Z1_SUPPLYINLET
   AirLoop Supply Connections,1,CONFERENCE_0_Z1_AIRLOOP,36,CONFERENCE_0_Z1_ZONEEQUIPMENTINLET,9,CONFERENCE_0_Z1_SUPPLYEQUIPMENTOUTLETNODE
   Cooled Zone Info,1,CONFERENCE_0,1,CONFERENCE_0_Z1_ADUOUTLET,CONFERENCE_0_Z1_AIRLOOP
 AirLoopHVAC,BREAK_ROOM_0_Z2_AIRLOOP,1,1,1,0,No
   AirLoop Return Connections,1,BREAK_ROOM_0_Z2_AIRLOOP,42,BREAK_ROOM_0_Z2_ZONEEQUIPMENTOUTLETNODE,10,BREAK_ROOM_0_Z2_SUPPLYINLET
   AirLoop Supply Connections,1,BREAK_ROOM_0_Z2_AIRLOOP,37,BREAK_ROOM_0_Z2_ZONEEQUIPMENTINLET,13,BREAK_ROOM_0_Z2_SUPPLYEQUIPMENTOUTLETNODE
   Cooled Zone Info,1,BREAK_ROOM_0,2,BREAK_ROOM_0_Z2_ADUOUTLET,BREAK_ROOM_0_Z2_AIRLOOP
 AirLoopHVAC,CONFERENCE_1_Z3_AIRLOOP,1,1,1,0,No
   AirLoop Return Connections,1,CONFERENCE_1_Z3_AIRLOOP,43,CONFERENCE_1_Z3_ZONEEQUIPMENTOUTLETNODE,14,CONFERENCE_1_Z3_SUPPLYINLET
   AirLoop Supply Connections,1,CONFERENCE_1_Z3_AIRLOOP,38,CONFERENCE_1_Z3_ZONEEQUIPMENTINLET,17,CONFERENCE_1_Z3_SUPPLYEQUIPMENTOUTLETNODE
   Cooled Zone Info,1,CONFERENCE_1,3,CONFERENCE_1_Z3_ADUOUTLET,CONFERENCE_1_Z3_AIRLOOP
 AirLoopHVAC,MECHANICAL_1_Z4_AIRLOOP,1,1,1,0,No
   AirLoop Return Connections,1,MECHANICAL_1_Z4_AIRLOOP,44,MECHANICAL_1_Z4_ZONEEQUIPMENTOUTLETNODE,18,MECHANICAL_1_Z4_SUPPLYINLET
   AirLoop Supply Connections,1,MECHANICAL_1_Z4_AIRLOOP,39,MECHANICAL_1_Z4_ZONEEQUIPMENTINLET,21,MECHANICAL_1_Z4_SUPPLYEQUIPMENTOUTLETNODE
   Cooled Zone Info,1,MECHANICAL_1,4,MECHANICAL_1_Z4_ADUOUTLET,MECHANICAL_1_Z4_AIRLOOP
 AirLoopHVAC,STORAGE_1_Z5_AIRLOOP,1,1,1,0,No
   AirLoop Return Connections,1,STORAGE_1_Z5_AIRLOOP,45,STORAGE_1_Z5_ZONEEQUIPMENTOUTLETNODE,22,STORAGE_1_Z5_SUPPLYINLET
   AirLoop Supply Connections,1,STORAGE_1_Z5_AIRLOOP,40,STORAGE_1_Z5_ZONEEQUIPMENTINLET,25,STORAGE_1_Z5_SUPPLYEQUIPMENTOUTLETNODE
   Cooled Zone Info,1,STORAGE_1,5,STORAGE_1_Z5_ADUOUTLET,STORAGE_1_Z5_AIRLOOP
! ===============================================================
! <#Parent Node Connections>,<Number of Parent Node Connections>
 #Parent Node Connections,75
! <Parent Node Connection>,<Node Name>,<Node ObjectType>,<Node ObjectName>,<Node ConnectionType>,<Node FluidStream>
 Parent Node Connection,CONFERENCE_0_Z1_SUPPLYINLET,BRANCH,CONFERENCE_0_Z1_MAINBRANCH,Inlet,1
 Parent Node Connection,CONFERENCE_0_Z1_COOLC-HEATCNODE,BRANCH,CONFERENCE_0_Z1_MAINBRANCH,Internal,1
 Parent Node Connection,CONFERENCE_0_Z1_HEATC-FANNODE,BRANCH,CONFERENCE_0_Z1_MAINBRANCH,Internal,1
 Parent Node Connection,CONFERENCE_0_Z1_SUPPLYEQUIPMENTOUTLETNODE,BRANCH,CONFERENCE_0_Z1_MAINBRANCH,Outlet,1
 Parent Node Connection,BREAK_ROOM_0_Z2_SUPPLYINLET,BRANCH,BREAK_ROOM_0_Z2_MAINBRANCH,Inlet,1
 Parent Node Connection,BREAK_ROOM_0_Z2_COOLC-HEATCNODE,BRANCH,BREAK_ROOM_0_Z2_MAINBRANCH,Internal,1
 Parent Node Connection,BREAK_ROOM_0_Z2_HEATC-FANNODE,BRANCH,BREAK_ROOM_0_Z2_MAINBRANCH,Internal,1
 Parent Node Connection,BREAK_ROOM_0_Z2_SUPPLYEQUIPMENTOUTLETNODE,BRANCH,BREAK_ROOM_0_Z2_MAINBRANCH,Outlet,1
 Parent Node Connection,CONFERENCE_1_Z3_SUPPLYINLET,BRANCH,CONFERENCE_1_Z3_MAINBRANCH,Inlet,1
 Parent Node Connection,CONFERENCE_1_Z3_COOLC-HEATCNODE,BRANCH,CONFERENCE_1_Z3_MAINBRANCH,Internal,1
 Parent Node Connection,CONFERENCE_1_Z3_HEATC-FANNODE,BRANCH,CONFERENCE_1_Z3_MAINBRANCH,Internal,1
 Parent Node Connection,CONFERENCE_1_Z3_SUPPLYEQUIPMENTOUTLETNODE,BRANCH,CONFERENCE_1_Z3_MAINBRANCH,Outlet,1
 Parent Node Connection,MECHANICAL_1_Z4_SUPPLYINLET,BRANCH,MECHANICAL_1_Z4_MAINBRANCH,Inlet,1
 Parent Node Connection,MECHANICAL_1_Z4_COOLC-HEATCNODE,BRANCH,MECHANICAL_1_Z4_MAINBRANCH,Internal,1
 Parent Node Connection,MECHANICAL_1_Z4_HEATC-FANNODE,BRANCH,MECHANICAL_1_Z4_MAINBRANCH,Internal,1
 Parent Node Connection,MECHANICAL_1_Z4_SUPPLYEQUIPMENTOUTLETNODE,BRANCH,MECHANICAL_1_Z4_MAINBRANCH,Outlet,1
 Parent Node Connection,STORAGE_1_Z5_SUPPLYINLET,BRANCH,STORAGE_1_Z5_MAINBRANCH,Inlet,1
 Parent Node Connection,STORAGE_1_Z5_COOLC-HEATCNODE,BRANCH,STORAGE_1_Z5_MAINBRANCH,Internal,1
 Parent Node Connection,STORAGE_1_Z5_HEATC-FANNODE,BRANCH,STORAGE_1_Z5_MAINBRANCH,Internal,1
 Parent Node Connection,STORAGE_1_Z5_SUPPLYEQUIPMENTOUTLETNODE,BRANCH,STORAGE_1_Z5_MAINBRANCH,Outlet,1
 Parent Node Connection,CONFERENCE_0_Z1_ZONEEQUIPMENTINLET,AIRLOOPHVAC:SUPPLYPATH,CONFERENCE_0_Z1,Inlet,1
 Parent Node Connection,BREAK_ROOM_0_Z2_ZONEEQUIPMENTINLET,AIRLOOPHVAC:SUPPLYPATH,BREAK_ROOM_0_Z2,Inlet,1
 Parent Node Connection,CONFERENCE_1_Z3_ZONEEQUIPMENTINLET,AIRLOOPHVAC:SUPPLYPATH,CONFERENCE_1_Z3,Inlet,1
 Parent Node Connection,MECHANICAL_1_Z4_ZONEEQUIPMENTINLET,AIRLOOPHVAC:SUPPLYPATH,MECHANICAL_1_Z4,Inlet,1
 Parent Node Connection,STORAGE_1_Z5_ZONEEQUIPMENTINLET,AIRLOOPHVAC:SUPPLYPATH,STORAGE_1_Z5,Inlet,1
 Parent Node Connection,CONFERENCE_0_Z1_ZONEEQUIPMENTOUTLETNODE,AIRLOOPHVAC:RETURNPATH,CONFERENCE_0_Z1_RETURNAIRPATH,Outlet,1
 Parent Node Connection,BREAK_ROOM_0_Z2_ZONEEQUIPMENTOUTLETNODE,AIRLOOPHVAC:RETURNPATH,BREAK_ROOM_0_Z2_RETURNAIRPATH,Outlet,1
 Parent Node Connection,CONFERENCE_1_Z3_ZONEEQUIPMENTOUTLETNODE,AIRLOOPHVAC:RETURNPATH,CONFERENCE_1_Z3_RETURNAIRPATH,Outlet,1
 Parent Node Connection,MECHANICAL_1_Z4_ZONEEQUIPMENTOUTLETNODE,AIRLOOPHVAC:RETURNPATH,MECHANICAL_1_Z4_RETURNAIRPATH,Outlet,1
 Parent Node Connection,STORAGE_1_Z5_ZONEEQUIPMENTOUTLETNODE,AIRLOOPHVAC:RETURNPATH,STORAGE_1_Z5_RETURNAIRPATH,Outlet,1
 Parent Node Connection,CONFERENCE_0_Z1_ADUOUTLET,ZONEHVAC:AIRDISTRIBUTIONUNIT,CONFERENCE_0_Z1_ADU,Outlet,1
 Parent Node Connection,BREAK_ROOM_0_Z2_ADUOUTLET,ZONEHVAC:AIRDISTRIBUTIONUNIT,BREAK_ROOM_0_Z2_ADU,Outlet,1
 Parent Node Connection,CONFERENCE_1_Z3_ADUOUTLET,ZONEHVAC:AIRDISTRIBUTIONUNIT,CONFERENCE_1_Z3_ADU,Outlet,1
 Parent Node Connection,MECHANICAL_1_Z4_ADUOUTLET,ZONEHVAC:AIRDISTRIBUTIONUNIT,MECHANICAL_1_Z4_ADU,Outlet,1
 Parent Node Connection,STORAGE_1_Z5_ADUOUTLET,ZONEHVAC:AIRDISTRIBUTIONUNIT,STORAGE_1_Z5_ADU,Outlet,1
 Parent Node Connection,CONFERENCE_0_Z1_ADUOUTLET,AIRTERMINAL:SINGLEDUCT:VAV:REHEAT,CONFERENCE_0_Z1_VAVTERMINAL,Outlet,1
 Parent Node Connection,BREAK_ROOM_0_Z2_ADUOUTLET,AIRTERMINAL:SINGLEDUCT:VAV:REHEAT,BREAK_ROOM_0_Z2_VAVTERMINAL,Outlet,1
 Parent Node Connection,CONFERENCE_1_Z3_ADUOUTLET,AIRTERMINAL:SINGLEDUCT:VAV:REHEAT,CONFERENCE_1_Z3_VAVTERMINAL,Outlet,1
 Parent Node Connection,MECHANICAL_1_Z4_ADUOUTLET,AIRTERMINAL:SINGLEDUCT:VAV:REHEAT,MECHANICAL_1_Z4_VAVTERMINAL,Outlet,1
 Parent Node Connection,STORAGE_1_Z5_ADUOUTLET,AIRTERMINAL:SINGLEDUCT:VAV:REHEAT,STORAGE_1_Z5_VAVTERMINAL,Outlet,1
 Parent Node Connection,CONFERENCE_0_Z1_SUPPLYINLET,AIRLOOPHVAC,CONFERENCE_0_Z1_AIRLOOP,Inlet,1
 Parent Node Connection,CONFERENCE_0_Z1_ZONEEQUIPMENTOUTLETNODE,AIRLOOPHVAC,CONFERENCE_0_Z1_AIRLOOP,Outlet,1
 Parent Node Connection,CONFERENCE_0_Z1_ZONEEQUIPMENTINLET,AIRLOOPHVAC,CONFERENCE_0_Z1_AIRLOOP,Inlet,1
 Parent Node Connection,CONFERENCE_0_Z1_SUPPLYEQUIPMENTOUTLETNODE,AIRLOOPHVAC,CONFERENCE_0_Z1_AIRLOOP,Outlet,1
 Parent Node Connection,BREAK_ROOM_0_Z2_SUPPLYINLET,AIRLOOPHVAC,BREAK_ROOM_0_Z2_AIRLOOP,Inlet,1
 Parent Node Connection,BREAK_ROOM_0_Z2_ZONEEQUIPMENTOUTLETNODE,AIRLOOPHVAC,BREAK_ROOM_0_Z2_AIRLOOP,Outlet,1
 Parent Node Connection,BREAK_ROOM_0_Z2_ZONEEQUIPMENTINLET,AIRLOOPHVAC,BREAK_ROOM_0_Z2_AIRLOOP,Inlet,1
 Parent Node Connection,BREAK_ROOM_0_Z2_SUPPLYEQUIPMENTOUTLETNODE,AIRLOOPHVAC,BREAK_ROOM_0_Z2_AIRLOOP,Outlet,1
 Parent Node Connection,CONFERENCE_1_Z3_SUPPLYINLET,AIRLOOPHVAC,CONFERENCE_1_Z3_AIRLOOP,Inlet,1
 Parent Node Connection,CONFERENCE_1_Z3_ZONEEQUIPMENTOUTLETNODE,AIRLOOPHVAC,CONFERENCE_1_Z3_AIRLOOP,Outlet,1
 Parent Node Connection,CONFERENCE_1_Z3_ZONEEQUIPMENTINLET,AIRLOOPHVAC,CONFERENCE_1_Z3_AIRLOOP,Inlet,1
 Parent Node Connection,CONFERENCE_1_Z3_SUPPLYEQUIPMENTOUTLETNODE,AIRLOOPHVAC,CONFERENCE_1_Z3_AIRLOOP,Outlet,1
 Parent Node Connection,MECHANICAL_1_Z4_SUPPLYINLET,AIRLOOPHVAC,MECHANICAL_1_Z4_AIRLOOP,Inlet,1
 Parent Node Connection,MECHANICAL_1_Z4_ZONEEQUIPMENTOUTLETNODE,AIRLOOPHVAC,MECHANICAL_1_Z4_AIRLOOP,Outlet,1
 Parent Node Connection,MECHANICAL_1_Z4_ZONEEQUIPMENTINLET,AIRLOOPHVAC,MECHANICAL_1_Z4_AIRLOOP,Inlet,1
 Parent Node Connection,MECHANICAL_1_Z4_SUPPLYEQUIPMENTOUTLETNODE,AIRLOOPHVAC,MECHANICAL_1_Z4_AIRLOOP,Outlet,1
 Parent Node Connection,STORAGE_1_Z5_SUPPLYINLET,AIRLOOPHVAC,STORAGE_1_Z5_AIRLOOP,Inlet,1
 Parent Node Connection,STORAGE_1_Z5_ZONEEQUIPMENTOUTLETNODE,AIRLOOPHVAC,STORAGE_1_Z5_AIRLOOP,Outlet,1
 Parent Node Connection,STORAGE_1_Z5_ZONEEQUIPMENTINLET,AIRLOOPHVAC,STORAGE_1_Z5_AIRLOOP,Inlet,1
 Parent Node Connection,STORAGE_1_Z5_SUPPLYEQUIPMENTOUTLETNODE,AIRLOOPHVAC,STORAGE_1_Z5_AIRLOOP,Outlet,1
 Parent Node Connection,BREAK_ROOM_0_Z2_SUPPLYINLET,COILSYSTEM:COOLING:DX,BREAK_ROOM_0_Z2_COOLINGCOIL,Inlet,1
 Parent Node Connection,BREAK_ROOM_0_Z2_COOLC-HEATCNODE,COILSYSTEM:COOLING:DX,BREAK_ROOM_0_Z2_COOLINGCOIL,Outlet,1
 Parent Node Connection,CONFERENCE_0_Z1_SUPPLYINLET,COILSYSTEM:COOLING:DX,CONFERENCE_0_Z1_COOLINGCOIL,Inlet,1
 Parent Node Connection,CONFERENCE_0_Z1_COOLC-HEATCNODE,COILSYSTEM:COOLING:DX,CONFERENCE_0_Z1_COOLINGCOIL,Outlet,1
 Parent Node Connection,CONFERENCE_1_Z3_SUPPLYINLET,COILSYSTEM:COOLING:DX,CONFERENCE_1_Z3_COOLINGCOIL,Inlet,1
 Parent Node Connection,CONFERENCE_1_Z3_COOLC-HEATCNODE,COILSYSTEM:COOLING:DX,CONFERENCE_1_Z3_COOLINGCOIL,Outlet,1
 Parent Node Connection,MECHANICAL_1_Z4_SUPPLYINLET,COILSYSTEM:COOLING:DX,MECHANICAL_1_Z4_COOLINGCOIL,Inlet,1
 Parent Node Connection,MECHANICAL_1_Z4_COOLC-HEATCNODE,COILSYSTEM:COOLING:DX,MECHANICAL_1_Z4_COOLINGCOIL,Outlet,1
 Parent Node Connection,STORAGE_1_Z5_SUPPLYINLET,COILSYSTEM:COOLING:DX,STORAGE_1_Z5_COOLINGCOIL,Inlet,1
 Parent Node Connection,STORAGE_1_Z5_COOLC-HEATCNODE,COILSYSTEM:COOLING:DX,STORAGE_1_Z5_COOLINGCOIL,Outlet,1
 Parent Node Connection,CONFERENCE_0_Z1_COOLC-HEATCNODE,COILSYSTEM:COOLING:DX,CONFERENCE_0_Z1_COOLINGCOIL,Sensor,1
 Parent Node Connection,BREAK_ROOM_0_Z2_COOLC-HEATCNODE,COILSYSTEM:COOLING:DX,BREAK_ROOM_0_Z2_COOLINGCOIL,Sensor,1
 Parent Node Connection,CONFERENCE_1_Z3_COOLC-HEATCNODE,COILSYSTEM:COOLING:DX,CONFERENCE_1_Z3_COOLINGCOIL,Sensor,1
 Parent Node Connection,MECHANICAL_1_Z4_COOLC-HEATCNODE,COILSYSTEM:COOLING:DX,MECHANICAL_1_Z4_COOLINGCOIL,Sensor,1
 Parent Node Connection,STORAGE_1_Z5_COOLC-HEATCNODE,COILSYSTEM:COOLING:DX,STORAGE_1_Z5_COOLINGCOIL,Sensor,1
! ===============================================================
! <#Non-Parent Node Connections>,<Number of Non-Parent Node Connections>
 #Non-Parent Node Connections,105
! <Non-Parent Node Connection>,<Node Name>,<Node ObjectType>,<Node ObjectName>,<Node ConnectionType>,<Node FluidStream>
 Non-Parent Node Connection,CONFERENCE_0 AIR NODE,ZONEHVAC:EQUIPMENTCONNECTIONS,CONFERENCE_0,ZoneNode,1
 Non-Parent Node Connection,CONFERENCE_0_Z1_ADUOUTLET,ZONEHVAC:EQUIPMENTCONNECTIONS,CONFERENCE_0,ZoneInlet,1
 Non-Parent Node Connection,CONFERENCE_0_Z1_RETURNAIR,ZONEHVAC:EQUIPMENTCONNECTIONS,CONFERENCE_0,ZoneReturn,1
 Non-Parent Node Connection,BREAK_ROOM_0 AIR NODE,ZONEHVAC:EQUIPMENTCONNECTIONS,BREAK_ROOM_0,ZoneNode,1
 Non-Parent Node Connection,BREAK_ROOM_0_Z2_ADUOUTLET,ZONEHVAC:EQUIPMENTCONNECTIONS,BREAK_ROOM_0,ZoneInlet,1
 Non-Parent Node Connection,BREAK_ROOM_0_Z2_RETURNAIR,ZONEHVAC:EQUIPMENTCONNECTIONS,BREAK_ROOM_0,ZoneReturn,1
 Non-Parent Node Connection,CONFERENCE_1 AIR NODE,ZONEHVAC:EQUIPMENTCONNECTIONS,CONFERENCE_1,ZoneNode,1
 Non-Parent Node Connection,CONFERENCE_1_Z3_ADUOUTLET,ZONEHVAC:EQUIPMENTCONNECTIONS,CONFERENCE_1,ZoneInlet,1
 Non-Parent Node Connection,CONFERENCE_1_Z3_RETURNAIR,ZONEHVAC:EQUIPMENTCONNECTIONS,CONFERENCE_1,ZoneReturn,1
 Non-Parent Node Connection,MECHANICAL_1 AIR NODE,ZONEHVAC:EQUIPMENTCONNECTIONS,MECHANICAL_1,ZoneNode,1
 Non-Parent Node Connection,MECHANICAL_1_Z4_ADUOUTLET,ZONEHVAC:EQUIPMENTCONNECTIONS,MECHANICAL_1,ZoneInlet,1
 Non-Parent Node Connection,MECHANICAL_1_Z4_RETURNAIR,ZONEHVAC:EQUIPMENTCONNECTIONS,MECHANICAL_1,ZoneReturn,1
 Non-Parent Node Connection,STORAGE_1 AIR NODE,ZONEHVAC:EQUIPMENTCONNECTIONS,STORAGE_1,ZoneNode,1
 Non-Parent Node Connection,STORAGE_1_Z5_ADUOUTLET,ZONEHVAC:EQUIPMENTCONNECTIONS,STORAGE_1,ZoneInlet,1
 Non-Parent Node Connection,STORAGE_1_Z5_RETURNAIR,ZONEHVAC:EQUIPMENTCONNECTIONS,STORAGE_1,ZoneReturn,1
 Non-Parent Node Connection,CONFERENCE_0_Z1_HEATC-FANNODE,SETPOINTMANAGER:SCHEDULED,CONFERENCE_0_Z1_HEATINGSETPOINTMANAGER,Setpoint,1
 Non-Parent Node Connection,CONFERENCE_0_Z1_COOLC-HEATCNODE,SETPOINTMANAGER:SCHEDULED,CONFERENCE_0_Z1_COOLINGSETPOINTMANAGER,Setpoint,1
 Non-Parent Node Connection,BREAK_ROOM_0_Z2_HEATC-FANNODE,SETPOINTMANAGER:SCHEDULED,BREAK_ROOM_0_Z2_HEATINGSETPOINTMANAGER,Setpoint,1
 Non-Parent Node Connection,BREAK_ROOM_0_Z2_COOLC-HEATCNODE,SETPOINTMANAGER:SCHEDULED,BREAK_ROOM_0_Z2_COOLINGSETPOINTMANAGER,Setpoint,1
 Non-Parent Node Connection,CONFERENCE_1_Z3_HEATC-FANNODE,SETPOINTMANAGER:SCHEDULED,CONFERENCE_1_Z3_HEATINGSETPOINTMANAGER,Setpoint,1
 Non-Parent Node Connection,CONFERENCE_1_Z3_COOLC-HEATCNODE,SETPOINTMANAGER:SCHEDULED,CONFERENCE_1_Z3_COOLINGSETPOINTMANAGER,Setpoint,1
 Non-Parent Node Connection,MECHANICAL_1_Z4_HEATC-FANNODE,SETPOINTMANAGER:SCHEDULED,MECHANICAL_1_Z4_HEATINGSETPOINTMANAGER,Setpoint,1
 Non-Parent Node Connection,MECHANICAL_1_Z4_COOLC-HEATCNODE,SETPOINTMANAGER:SCHEDULED,MECHANICAL_1_Z4_COOLINGSETPOINTMANAGER,Setpoint,1
 Non-Parent Node Connection,STORAGE_1_Z5_HEATC-FANNODE,SETPOINTMANAGER:SCHEDULED,STORAGE_1_Z5_HEATINGSETPOINTMANAGER,Setpoint,1
 Non-Parent Node Connection,STORAGE_1_Z5_COOLC-HEATCNODE,SETPOINTMANAGER:SCHEDULED,STORAGE_1_Z5_COOLINGSETPOINTMANAGER,Setpoint,1
 Non-Parent Node Connection,CONFERENCE_0_Z1_SUPPLYEQUIPMENTOUTLETNODE,SETPOINTMANAGER:OUTDOORAIRRESET,CONFERENCE_0_Z1_SETPOINTMANAGER,Setpoint,1
 Non-Parent Node Connection,BREAK_ROOM_0_Z2_SUPPLYEQUIPMENTOUTLETNODE,SETPOINTMANAGER:OUTDOORAIRRESET,BREAK_ROOM_0_Z2_SETPOINTMANAGER,Setpoint,1
 Non-Parent Node Connection,CONFERENCE_1_Z3_SUPPLYEQUIPMENTOUTLETNODE,SETPOINTMANAGER:OUTDOORAIRRESET,CONFERENCE_1_Z3_SETPOINTMANAGER,Setpoint,1
 Non-Parent Node Connection,MECHANICAL_1_Z4_SUPPLYEQUIPMENTOUTLETNODE,SETPOINTMANAGER:OUTDOORAIRRESET,MECHANICAL_1_Z4_SETPOINTMANAGER,Setpoint,1
 Non-Parent Node Connection,STORAGE_1_Z5_SUPPLYEQUIPMENTOUTLETNODE,SETPOINTMANAGER:OUTDOORAIRRESET,STORAGE_1_Z5_SETPOINTMANAGER,Setpoint,1
 Non-Parent Node Connection,CONFERENCE_0_Z1_ZONEEQUIPMENTINLET,AIRLOOPHVAC:ZONESPLITTER,CONFERENCE_0_Z1_SUPPLYSPLITTER,Inlet,1
 Non-Parent Node Connection,CONFERENCE_0_Z1_TERMINALINLET,AIRLOOPHVAC:ZONESPLITTER,CONFERENCE_0_Z1_SUPPLYSPLITTER,Outlet,1
 Non-Parent Node Connection,BREAK_ROOM_0_Z2_ZONEEQUIPMENTINLET,AIRLOOPHVAC:ZONESPLITTER,BREAK_ROOM_0_Z2_SUPPLYSPLITTER,Inlet,1
 Non-Parent Node Connection,BREAK_ROOM_0_Z2_TERMINALINLET,AIRLOOPHVAC:ZONESPLITTER,BREAK_ROOM_0_Z2_SUPPLYSPLITTER,Outlet,1
 Non-Parent Node Connection,CONFERENCE_1_Z3_ZONEEQUIPMENTINLET,AIRLOOPHVAC:ZONESPLITTER,CONFERENCE_1_Z3_SUPPLYSPLITTER,Inlet,1
 Non-Parent Node Connection,CONFERENCE_1_Z3_TERMINALINLET,AIRLOOPHVAC:ZONESPLITTER,CONFERENCE_1_Z3_SUPPLYSPLITTER,Outlet,1
 Non-Parent Node Connection,MECHANICAL_1_Z4_ZONEEQUIPMENTINLET,AIRLOOPHVAC:ZONESPLITTER,MECHANICAL_1_Z4_SUPPLYSPLITTER,Inlet,1
 Non-Parent Node Connection,MECHANICAL_1_Z4_TERMINALINLET,AIRLOOPHVAC:ZONESPLITTER,MECHANICAL_1_Z4_SUPPLYSPLITTER,Outlet,1
 Non-Parent Node Connection,STORAGE_1_Z5_ZONEEQUIPMENTINLET,AIRLOOPHVAC:ZONESPLITTER,STORAGE_1_Z5_SUPPLYSPLITTER,Inlet,1
 Non-Parent Node Connection,STORAGE_1_Z5_TERMINALINLET,AIRLOOPHVAC:ZONESPLITTER,STORAGE_1_Z5_SUPPLYSPLITTER,Outlet,1
 Non-Parent Node Connection,CONFERENCE_0_Z1_TERMINALOUTLET,AIRTERMINAL:SINGLEDUCT:VAV:REHEAT,CONFERENCE_0_Z1_VAVTERMINAL,Outlet,1
 Non-Parent Node Connection,CONFERENCE_0_Z1_TERMINALINLET,AIRTERMINAL:SINGLEDUCT:VAV:REHEAT,CONFERENCE_0_Z1_VAVTERMINAL,Inlet,1
 Non-Parent Node Connection,BREAK_ROOM_0_Z2_TERMINALOUTLET,AIRTERMINAL:SINGLEDUCT:VAV:REHEAT,BREAK_ROOM_0_Z2_VAVTERMINAL,Outlet,1
 Non-Parent Node Connection,BREAK_ROOM_0_Z2_TERMINALINLET,AIRTERMINAL:SINGLEDUCT:VAV:REHEAT,BREAK_ROOM_0_Z2_VAVTERMINAL,Inlet,1
 Non-Parent Node Connection,CONFERENCE_1_Z3_TERMINALOUTLET,AIRTERMINAL:SINGLEDUCT:VAV:REHEAT,CONFERENCE_1_Z3_VAVTERMINAL,Outlet,1
 Non-Parent Node Connection,CONFERENCE_1_Z3_TERMINALINLET,AIRTERMINAL:SINGLEDUCT:VAV:REHEAT,CONFERENCE_1_Z3_VAVTERMINAL,Inlet,1
 Non-Parent Node Connection,MECHANICAL_1_Z4_TERMINALOUTLET,AIRTERMINAL:SINGLEDUCT:VAV:REHEAT,MECHANICAL_1_Z4_VAVTERMINAL,Outlet,1
 Non-Parent Node Connection,MECHANICAL_1_Z4_TERMINALINLET,AIRTERMINAL:SINGLEDUCT:VAV:REHEAT,MECHANICAL_1_Z4_VAVTERMINAL,Inlet,1
 Non-Parent Node Connection,STORAGE_1_Z5_TERMINALOUTLET,AIRTERMINAL:SINGLEDUCT:VAV:REHEAT,STORAGE_1_Z5_VAVTERMINAL,Outlet,1
 Non-Parent Node Connection,STORAGE_1_Z5_TERMINALINLET,AIRTERMINAL:SINGLEDUCT:VAV:REHEAT,STORAGE_1_Z5_VAVTERMINAL,Inlet,1
 Non-Parent Node Connection,CONFERENCE_0_Z1_COOLC-HEATCNODE,COIL:HEATING:ELECTRIC,CONFERENCE_0_Z1_HEATINGCOIL,Inlet,1
 Non-Parent Node Connection,CONFERENCE_0_Z1_HEATC-FANNODE,COIL:HEATING:ELECTRIC,CONFERENCE_0_Z1_HEATINGCOIL,Outlet,1
 Non-Parent Node Connection,CONFERENCE_0_Z1_HEATC-FANNODE,COIL:HEATING:ELECTRIC,CONFERENCE_0_Z1_HEATINGCOIL,Sensor,1
 Non-Parent Node Connection,CONFERENCE_0_Z1_TERMINALOUTLET,COIL:HEATING:ELECTRIC,CONFERENCE_0_Z1_REHEATCOIL,Inlet,1
 Non-Parent Node Connection,CONFERENCE_0_Z1_ADUOUTLET,COIL:HEATING:ELECTRIC,CONFERENCE_0_Z1_REHEATCOIL,Outlet,1
 Non-Parent Node Connection,BREAK_ROOM_0_Z2_COOLC-HEATCNODE,COIL:HEATING:ELECTRIC,BREAK_ROOM_0_Z2_HEATINGCOIL,Inlet,1
 Non-Parent Node Connection,BREAK_ROOM_0_Z2_HEATC-FANNODE,COIL:HEATING:ELECTRIC,BREAK_ROOM_0_Z2_HEATINGCOIL,Outlet,1
 Non-Parent Node Connection,BREAK_ROOM_0_Z2_HEATC-FANNODE,COIL:HEATING:ELECTRIC,BREAK_ROOM_0_Z2_HEATINGCOIL,Sensor,1
 Non-Parent Node Connection,BREAK_ROOM_0_Z2_TERMINALOUTLET,COIL:HEATING:ELECTRIC,BREAK_ROOM_0_Z2_REHEATCOIL,Inlet,1
 Non-Parent Node Connection,BREAK_ROOM_0_Z2_ADUOUTLET,COIL:HEATING:ELECTRIC,BREAK_ROOM_0_Z2_REHEATCOIL,Outlet,1
 Non-Parent Node Connection,CONFERENCE_1_Z3_COOLC-HEATCNODE,COIL:HEATING:ELECTRIC,CONFERENCE_1_Z3_HEATINGCOIL,Inlet,1
 Non-Parent Node Connection,CONFERENCE_1_Z3_HEATC-FANNODE,COIL:HEATING:ELECTRIC,CONFERENCE_1_Z3_HEATINGCOIL,Outlet,1
 Non-Parent Node Connection,CONFERENCE_1_Z3_HEATC-FANNODE,COIL:HEATING:ELECTRIC,CONFERENCE_1_Z3_HEATINGCOIL,Sensor,1
 Non-Parent Node Connection,CONFERENCE_1_Z3_TERMINALOUTLET,COIL:HEATING:ELECTRIC,CONFERENCE_1_Z3_REHEATCOIL,Inlet,1
 Non-Parent Node Connection,CONFERENCE_1_Z3_ADUOUTLET,COIL:HEATING:ELECTRIC,CONFERENCE_1_Z3_REHEATCOIL,Outlet,1
 Non-Parent Node Connection,MECHANICAL_1_Z4_COOLC-HEATCNODE,COIL:HEATING:ELECTRIC,MECHANICAL_1_Z4_HEATINGCOIL,Inlet,1
 Non-Parent Node Connection,MECHANICAL_1_Z4_HEATC-FANNODE,COIL:HEATING:ELECTRIC,MECHANICAL_1_Z4_HEATINGCOIL,Outlet,1
 Non-Parent Node Connection,MECHANICAL_1_Z4_HEATC-FANNODE,COIL:HEATING:ELECTRIC,MECHANICAL_1_Z4_HEATINGCOIL,Sensor,1
 Non-Parent Node Connection,MECHANICAL_1_Z4_TERMINALOUTLET,COIL:HEATING:ELECTRIC,MECHANICAL_1_Z4_REHEATCOIL,Inlet,1
 Non-Parent Node Connection,MECHANICAL_1_Z4_ADUOUTLET,COIL:HEATING:ELECTRIC,MECHANICAL_1_Z4_REHEATCOIL,Outlet,1
 Non-Parent Node Connection,STORAGE_1_Z5_COOLC-HEATCNODE,COIL:HEATING:ELECTRIC,STORAGE_1_Z5_HEATINGCOIL,Inlet,1
 Non-Parent Node Connection,STORAGE_1_Z5_HEATC-FANNODE,COIL:HEATING:ELECTRIC,STORAGE_1_Z5_HEATINGCOIL,Outlet,1
 Non-Parent Node Connection,STORAGE_1_Z5_HEATC-FANNODE,COIL:HEATING:ELECTRIC,STORAGE_1_Z5_HEATINGCOIL,Sensor,1
 Non-Parent Node Connection,STORAGE_1_Z5_TERMINALOUTLET,COIL:HEATING:ELECTRIC,STORAGE_1_Z5_REHEATCOIL,Inlet,1
 Non-Parent Node Connection,STORAGE_1_Z5_ADUOUTLET,COIL:HEATING:ELECTRIC,STORAGE_1_Z5_REHEATCOIL,Outlet,1
 Non-Parent Node Connection,CONFERENCE_0_Z1_ZONEEQUIPMENTOUTLETNODE,AIRLOOPHVAC:ZONEMIXER,CONFERENCE_0_Z1_RETURNAIRMIXER,Outlet,1
 Non-Parent Node Connection,CONFERENCE_0_Z1_RETURNAIR,AIRLOOPHVAC:ZONEMIXER,CONFERENCE_0_Z1_RETURNAIRMIXER,Inlet,1
 Non-Parent Node Connection,BREAK_ROOM_0_Z2_ZONEEQUIPMENTOUTLETNODE,AIRLOOPHVAC:ZONEMIXER,BREAK_ROOM_0_Z2_RETURNAIRMIXER,Outlet,1
 Non-Parent Node Connection,BREAK_ROOM_0_Z2_RETURNAIR,AIRLOOPHVAC:ZONEMIXER,BREAK_ROOM_0_Z2_RETURNAIRMIXER,Inlet,1
 Non-Parent Node Connection,CONFERENCE_1_Z3_ZONEEQUIPMENTOUTLETNODE,AIRLOOPHVAC:ZONEMIXER,CONFERENCE_1_Z3_RETURNAIRMIXER,Outlet,1
 Non-Parent Node Connection,CONFERENCE_1_Z3_RETURNAIR,AIRLOOPHVAC:ZONEMIXER,CONFERENCE_1_Z3_RETURNAIRMIXER,Inlet,1
 Non-Parent Node Connection,MECHANICAL_1_Z4_ZONEEQUIPMENTOUTLETNODE,AIRLOOPHVAC:ZONEMIXER,MECHANICAL_1_Z4_RETURNAIRMIXER,Outlet,1
 Non-Parent Node Connection,MECHANICAL_1_Z4_RETURNAIR,AIRLOOPHVAC:ZONEMIXER,MECHANICAL_1_Z4_RETURNAIRMIXER,Inlet,1
 Non-Parent Node Connection,STORAGE_1_Z5_ZONEEQUIPMENTOUTLETNODE,AIRLOOPHVAC:ZONEMIXER,STORAGE_1_Z5_RETURNAIRMIXER,Outlet,1
 Non-Parent Node Connection,STORAGE_1_Z5_RETURNAIR,AIRLOOPHVAC:ZONEMIXER,STORAGE_1_Z5_RETURNAIRMIXER,Inlet,1
 Non-Parent Node Connection,CONFERENCE_0_Z1_HEATC-FANNODE,FAN:VARIABLEVOLUME,CONFERENCE_0_Z1_SUPPLYFAN,Inlet,1
 Non-Parent Node Connection,CONFERENCE_0_Z1_SUPPLYEQUIPMENTOUTLETNODE,FAN:VARIABLEVOLUME,CONFERENCE_0_Z1_SUPPLYFAN,Outlet,1
 Non-Parent Node Connection,BREAK_ROOM_0_Z2_HEATC-FANNODE,FAN:VARIABLEVOLUME,BREAK_ROOM_0_Z2_SUPPLYFAN,Inlet,1
 Non-Parent Node Connection,BREAK_ROOM_0_Z2_SUPPLYEQUIPMENTOUTLETNODE,FAN:VARIABLEVOLUME,BREAK_ROOM_0_Z2_SUPPLYFAN,Outlet,1
 Non-Parent Node Connection,CONFERENCE_1_Z3_HEATC-FANNODE,FAN:VARIABLEVOLUME,CONFERENCE_1_Z3_SUPPLYFAN,Inlet,1
 Non-Parent Node Connection,CONFERENCE_1_Z3_SUPPLYEQUIPMENTOUTLETNODE,FAN:VARIABLEVOLUME,CONFERENCE_1_Z3_SUPPLYFAN,Outlet,1
 Non-Parent Node Connection,MECHANICAL_1_Z4_HEATC-FANNODE,FAN:VARIABLEVOLUME,MECHANICAL_1_Z4_SUPPLYFAN,Inlet,1
 Non-Parent Node Connection,MECHANICAL_1_Z4_SUPPLYEQUIPMENTOUTLETNODE,FAN:VARIABLEVOLUME,MECHANICAL_1_Z4_SUPPLYFAN,Outlet,1
 Non-Parent Node Connection,STORAGE_1_Z5_HEATC-FANNODE,FAN:VARIABLEVOLUME,STORAGE_1_Z5_SUPPLYFAN,Inlet,1
 Non-Parent Node Connection,STORAGE_1_Z5_SUPPLYEQUIPMENTOUTLETNODE,FAN:VARIABLEVOLUME,STORAGE_1_Z5_SUPPLYFAN,Outlet,1
 Non-Parent Node Connection,CONFERENCE_0_Z1_SUPPLYINLET,COIL:COOLING:DX:SINGLESPEED,CONFERENCE_0_Z1_COOLINGCOILDX,Inlet,1
 Non-Parent Node Connection,CONFERENCE_0_Z1_COOLC-HEATCNODE,COIL:COOLING:DX:SINGLESPEED,CONFERENCE_0_Z1_COOLINGCOILDX,Outlet,1
 Non-Parent Node Connection,BREAK_ROOM_0_Z2_SUPPLYINLET,COIL:COOLING:DX:SINGLESPEED,BREAK_ROOM_0_Z2_COOLINGCOILDX,Inlet,1
 Non-Parent Node Connection,BREAK_ROOM_0_Z2_COOLC-HEATCNODE,COIL:COOLING:DX:SINGLESPEED,BREAK_ROOM_0_Z2_COOLINGCOILDX,Outlet,1
 Non-Parent Node Connection,CONFERENCE_1_Z3_SUPPLYINLET,COIL:COOLING:DX:SINGLESPEED,CONFERENCE_1_Z3_COOLINGCOILDX,Inlet,1
 Non-Parent Node Connection,CONFERENCE_1_Z3_COOLC-HEATCNODE,COIL:COOLING:DX:SINGLESPEED,CONFERENCE_1_Z3_COOLINGCOILDX,Outlet,1
 Non-Parent Node Connection,MECHANICAL_1_Z4_SUPPLYINLET,COIL:COOLING:DX:SINGLESPEED,MECHANICAL_1_Z4_COOLINGCOILDX,Inlet,1
 Non-Parent Node Connection,MECHANICAL_1_Z4_COOLC-HEATCNODE,COIL:COOLING:DX:SINGLESPEED,MECHANICAL_1_Z4_COOLINGCOILDX,Outlet,1
 Non-Parent Node Connection,STORAGE_1_Z5_SUPPLYINLET,COIL:COOLING:DX:SINGLESPEED,STORAGE_1_Z5_COOLINGCOILDX,Inlet,1
 Non-Parent Node Connection,STORAGE_1_Z5_COOLC-HEATCNODE,COIL:COOLING:DX:SINGLESPEED,STORAGE_1_Z5_COOLINGCOILDX,Outlet,1
