Program Version,EnergyPlus, Version 24.2.0-94a887817b, YMD=2025.11.02 18:15,
Var Type (reported time step),Var Report Type,Variable Name [Units]
Zone,Meter,Electricity:Facility [J]
Zone,Meter,Electricity:Building [J]
Zone,Meter,Electricity:Zone:CONFERENCE_0 [J]
Zone,Meter,Electricity:SpaceType:GENERAL [J]
Zone,Meter,InteriorLights:Electricity [J]
Zone,Meter,InteriorLights:Electricity:Zone:CONFERENCE_0 [J]
Zone,Meter,InteriorLights:Electricity:SpaceType:GENERAL [J]
Zone,Meter,General:InteriorLights:Electricity [J]
Zone,Meter,General:InteriorLights:Electricity:Zone:CONFERENCE_0 [J]
Zone,Meter,General:InteriorLights:Electricity:SpaceType:GENERAL [J]
Zone,Meter,Electricity:Zone:BREAK_ROOM_0 [J]
Zone,Meter,InteriorLights:Electricity:Zone:BREAK_ROOM_0 [J]
Zone,Meter,General:InteriorLights:Electricity:Zone:BREAK_ROOM_0 [J]
Zone,Meter,Electricity:Zone:STORAGE_0 [J]
Zone,Meter,InteriorLights:Electricity:Zone:STORAGE_0 [J]
Zone,Meter,General:InteriorLights:Electricity:Zone:STORAGE_0 [J]
Zone,Meter,Electricity:Zone:LOBBY_1 [J]
Zone,Meter,InteriorLights:Electricity:Zone:LOBBY_1 [J]
Zone,Meter,General:InteriorLights:Electricity:Zone:LOBBY_1 [J]
Zone,Meter,Electricity:Zone:BREAK_ROOM_1 [J]
Zone,Meter,InteriorLights:Electricity:Zone:BREAK_ROOM_1 [J]
Zone,Meter,General:InteriorLights:Electricity:Zone:BREAK_ROOM_1 [J]
Zone,Meter,Electricity:Zone:OFFICE_OPEN_1 [J]
Zone,Meter,InteriorLights:Electricity:Zone:OFFICE_OPEN_1 [J]
Zone,Meter,General:InteriorLights:Electricity:Zone:OFFICE_OPEN_1 [J]
Zone,Meter,Electricity:Zone:OFFICE_PRIVATE_1 [J]
Zone,Meter,InteriorLights:Electricity:Zone:OFFICE_PRIVATE_1 [J]
Zone,Meter,General:InteriorLights:Electricity:Zone:OFFICE_PRIVATE_1 [J]
Zone,Meter,Electricity:Zone:STORAGE_1 [J]
Zone,Meter,InteriorLights:Electricity:Zone:STORAGE_1 [J]
Zone,Meter,General:InteriorLights:Electricity:Zone:STORAGE_1 [J]
Zone,Meter,Electricity:Zone:STORAGE_2 [J]
Zone,Meter,InteriorLights:Electricity:Zone:STORAGE_2 [J]
Zone,Meter,General:InteriorLights:Electricity:Zone:STORAGE_2 [J]
Zone,Meter,Electricity:Zone:LOBBY_3 [J]
Zone,Meter,InteriorLights:Electricity:Zone:LOBBY_3 [J]
Zone,Meter,General:InteriorLights:Electricity:Zone:LOBBY_3 [J]
Zone,Meter,Electricity:Zone:BREAK_ROOM_3 [J]
Zone,Meter,InteriorLights:Electricity:Zone:BREAK_ROOM_3 [J]
Zone,Meter,General:InteriorLights:Electricity:Zone:BREAK_ROOM_3 [J]
Zone,Meter,Electricity:Zone:MECHANICAL_3 [J]
Zone,Meter,InteriorLights:Electricity:Zone:MECHANICAL_3 [J]
Zone,Meter,General:InteriorLights:Electricity:Zone:MECHANICAL_3 [J]
Zone,Meter,Electricity:Zone:OFFICE_PRIVATE_3 [J]
Zone,Meter,InteriorLights:Electricity:Zone:OFFICE_PRIVATE_3 [J]
Zone,Meter,General:InteriorLights:Electricity:Zone:OFFICE_PRIVATE_3 [J]
Zone,Meter,Electricity:Zone:LOBBY_4 [J]
Zone,Meter,InteriorLights:Electricity:Zone:LOBBY_4 [J]
Zone,Meter,General:InteriorLights:Electricity:Zone:LOBBY_4 [J]
Zone,Meter,Electricity:Zone:BREAK_ROOM_4 [J]
Zone,Meter,InteriorLights:Electricity:Zone:BREAK_ROOM_4 [J]
Zone,Meter,General:InteriorLights:Electricity:Zone:BREAK_ROOM_4 [J]
Zone,Meter,Electricity:Zone:OFFICE_OPEN_4 [J]
Zone,Meter,InteriorLights:Electricity:Zone:OFFICE_OPEN_4 [J]
Zone,Meter,General:InteriorLights:Electricity:Zone:OFFICE_OPEN_4 [J]
Zone,Meter,Electricity:Zone:OFFICE_PRIVATE_4 [J]
Zone,Meter,InteriorLights:Electricity:Zone:OFFICE_PRIVATE_4 [J]
Zone,Meter,General:InteriorLights:Electricity:Zone:OFFICE_PRIVATE_4 [J]
Zone,Meter,Electricity:Zone:STORAGE_4 [J]
Zone,Meter,InteriorLights:Electricity:Zone:STORAGE_4 [J]
Zone,Meter,General:InteriorLights:Electricity:Zone:STORAGE_4 [J]
Zone,Meter,Electricity:Zone:LOBBY_5 [J]
Zone,Meter,InteriorLights:Electricity:Zone:LOBBY_5 [J]
Zone,Meter,General:InteriorLights:Electricity:Zone:LOBBY_5 [J]
Zone,Meter,Electricity:Zone:MECHANICAL_5 [J]
Zone,Meter,InteriorLights:Electricity:Zone:MECHANICAL_5 [J]
Zone,Meter,General:InteriorLights:Electricity:Zone:MECHANICAL_5 [J]
Zone,Meter,Electricity:Zone:OFFICE_OPEN_5 [J]
Zone,Meter,InteriorLights:Electricity:Zone:OFFICE_OPEN_5 [J]
Zone,Meter,General:InteriorLights:Electricity:Zone:OFFICE_OPEN_5 [J]
Zone,Meter,Electricity:Zone:BREAK_ROOM_6 [J]
Zone,Meter,InteriorLights:Electricity:Zone:BREAK_ROOM_6 [J]
Zone,Meter,General:InteriorLights:Electricity:Zone:BREAK_ROOM_6 [J]
Zone,Meter,Electricity:Zone:STORAGE_6 [J]
Zone,Meter,InteriorLights:Electricity:Zone:STORAGE_6 [J]
Zone,Meter,General:InteriorLights:Electricity:Zone:STORAGE_6 [J]
Zone,Meter,Electricity:Zone:LOBBY_7 [J]
Zone,Meter,InteriorLights:Electricity:Zone:LOBBY_7 [J]
Zone,Meter,General:InteriorLights:Electricity:Zone:LOBBY_7 [J]
Zone,Meter,Electricity:Zone:CONFERENCE_7 [J]
Zone,Meter,InteriorLights:Electricity:Zone:CONFERENCE_7 [J]
Zone,Meter,General:InteriorLights:Electricity:Zone:CONFERENCE_7 [J]
Zone,Meter,Electricity:Zone:MECHANICAL_7 [J]
Zone,Meter,InteriorLights:Electricity:Zone:MECHANICAL_7 [J]
Zone,Meter,General:InteriorLights:Electricity:Zone:MECHANICAL_7 [J]
Zone,Meter,Electricity:Zone:OFFICE_PRIVATE_7 [J]
Zone,Meter,InteriorLights:Electricity:Zone:OFFICE_PRIVATE_7 [J]
Zone,Meter,General:InteriorLights:Electricity:Zone:OFFICE_PRIVATE_7 [J]
Zone,Meter,Electricity:Zone:STORAGE_7 [J]
Zone,Meter,InteriorLights:Electricity:Zone:STORAGE_7 [J]
Zone,Meter,General:InteriorLights:Electricity:Zone:STORAGE_7 [J]
Zone,Meter,Electricity:Zone:LOBBY_8 [J]
Zone,Meter,InteriorLights:Electricity:Zone:LOBBY_8 [J]
Zone,Meter,General:InteriorLights:Electricity:Zone:LOBBY_8 [J]
Zone,Meter,Electricity:Zone:BREAK_ROOM_8 [J]
Zone,Meter,InteriorLights:Electricity:Zone:BREAK_ROOM_8 [J]
Zone,Meter,General:InteriorLights:Electricity:Zone:BREAK_ROOM_8 [J]
Zone,Meter,Electricity:Zone:MECHANICAL_8 [J]
Zone,Meter,InteriorLights:Electricity:Zone:MECHANICAL_8 [J]
Zone,Meter,General:InteriorLights:Electricity:Zone:MECHANICAL_8 [J]
Zone,Meter,Electricity:Zone:OFFICE_OPEN_8 [J]
Zone,Meter,InteriorLights:Electricity:Zone:OFFICE_OPEN_8 [J]
Zone,Meter,General:InteriorLights:Electricity:Zone:OFFICE_OPEN_8 [J]
Zone,Meter,Electricity:Zone:BREAK_ROOM_9 [J]
Zone,Meter,InteriorLights:Electricity:Zone:BREAK_ROOM_9 [J]
Zone,Meter,General:InteriorLights:Electricity:Zone:BREAK_ROOM_9 [J]
Zone,Meter,Electricity:Zone:OFFICE_PRIVATE_9 [J]
Zone,Meter,InteriorLights:Electricity:Zone:OFFICE_PRIVATE_9 [J]
Zone,Meter,General:InteriorLights:Electricity:Zone:OFFICE_PRIVATE_9 [J]
Zone,Meter,Electricity:Zone:BREAK_ROOM_10 [J]
Zone,Meter,InteriorLights:Electricity:Zone:BREAK_ROOM_10 [J]
Zone,Meter,General:InteriorLights:Electricity:Zone:BREAK_ROOM_10 [J]
Zone,Meter,Electricity:Zone:MECHANICAL_10 [J]
Zone,Meter,InteriorLights:Electricity:Zone:MECHANICAL_10 [J]
Zone,Meter,General:InteriorLights:Electricity:Zone:MECHANICAL_10 [J]
Zone,Meter,Electricity:Zone:LOBBY_11 [J]
Zone,Meter,InteriorLights:Electricity:Zone:LOBBY_11 [J]
Zone,Meter,General:InteriorLights:Electricity:Zone:LOBBY_11 [J]
Zone,Meter,Electricity:Zone:CONFERENCE_11 [J]
Zone,Meter,InteriorLights:Electricity:Zone:CONFERENCE_11 [J]
Zone,Meter,General:InteriorLights:Electricity:Zone:CONFERENCE_11 [J]
Zone,Meter,Electricity:Zone:BREAK_ROOM_11 [J]
Zone,Meter,InteriorLights:Electricity:Zone:BREAK_ROOM_11 [J]
Zone,Meter,General:InteriorLights:Electricity:Zone:BREAK_ROOM_11 [J]
Zone,Meter,Electricity:Zone:OFFICE_OPEN_11 [J]
Zone,Meter,InteriorLights:Electricity:Zone:OFFICE_OPEN_11 [J]
Zone,Meter,General:InteriorLights:Electricity:Zone:OFFICE_OPEN_11 [J]
Zone,Meter,Electricity:Zone:LOBBY_12 [J]
Zone,Meter,InteriorLights:Electricity:Zone:LOBBY_12 [J]
Zone,Meter,General:InteriorLights:Electricity:Zone:LOBBY_12 [J]
Zone,Meter,Electricity:Zone:OFFICE_PRIVATE_12 [J]
Zone,Meter,InteriorLights:Electricity:Zone:OFFICE_PRIVATE_12 [J]
Zone,Meter,General:InteriorLights:Electricity:Zone:OFFICE_PRIVATE_12 [J]
Zone,Meter,Electricity:Zone:STORAGE_12 [J]
Zone,Meter,InteriorLights:Electricity:Zone:STORAGE_12 [J]
Zone,Meter,General:InteriorLights:Electricity:Zone:STORAGE_12 [J]
Zone,Meter,Electricity:Zone:LOBBY_13 [J]
Zone,Meter,InteriorLights:Electricity:Zone:LOBBY_13 [J]
Zone,Meter,General:InteriorLights:Electricity:Zone:LOBBY_13 [J]
Zone,Meter,Electricity:Zone:CONFERENCE_13 [J]
Zone,Meter,InteriorLights:Electricity:Zone:CONFERENCE_13 [J]
Zone,Meter,General:InteriorLights:Electricity:Zone:CONFERENCE_13 [J]
Zone,Meter,Electricity:Zone:BREAK_ROOM_13 [J]
Zone,Meter,InteriorLights:Electricity:Zone:BREAK_ROOM_13 [J]
Zone,Meter,General:InteriorLights:Electricity:Zone:BREAK_ROOM_13 [J]
Zone,Meter,Electricity:Zone:MECHANICAL_13 [J]
Zone,Meter,InteriorLights:Electricity:Zone:MECHANICAL_13 [J]
Zone,Meter,General:InteriorLights:Electricity:Zone:MECHANICAL_13 [J]
Zone,Meter,Electricity:Zone:OFFICE_PRIVATE_13 [J]
Zone,Meter,InteriorLights:Electricity:Zone:OFFICE_PRIVATE_13 [J]
Zone,Meter,General:InteriorLights:Electricity:Zone:OFFICE_PRIVATE_13 [J]
Zone,Meter,Electricity:Zone:STORAGE_13 [J]
Zone,Meter,InteriorLights:Electricity:Zone:STORAGE_13 [J]
Zone,Meter,General:InteriorLights:Electricity:Zone:STORAGE_13 [J]
Zone,Meter,Electricity:Zone:LOBBY_14 [J]
Zone,Meter,InteriorLights:Electricity:Zone:LOBBY_14 [J]
Zone,Meter,General:InteriorLights:Electricity:Zone:LOBBY_14 [J]
Zone,Meter,Electricity:Zone:LOBBY_16 [J]
Zone,Meter,InteriorLights:Electricity:Zone:LOBBY_16 [J]
Zone,Meter,General:InteriorLights:Electricity:Zone:LOBBY_16 [J]
Zone,Meter,Electricity:Zone:CONFERENCE_16 [J]
Zone,Meter,InteriorLights:Electricity:Zone:CONFERENCE_16 [J]
Zone,Meter,General:InteriorLights:Electricity:Zone:CONFERENCE_16 [J]
Zone,Meter,Electricity:Zone:MECHANICAL_16 [J]
Zone,Meter,InteriorLights:Electricity:Zone:MECHANICAL_16 [J]
Zone,Meter,General:InteriorLights:Electricity:Zone:MECHANICAL_16 [J]
Zone,Meter,Electricity:Zone:OFFICE_OPEN_16 [J]
Zone,Meter,InteriorLights:Electricity:Zone:OFFICE_OPEN_16 [J]
Zone,Meter,General:InteriorLights:Electricity:Zone:OFFICE_OPEN_16 [J]
Zone,Meter,Electricity:Zone:OFFICE_PRIVATE_16 [J]
Zone,Meter,InteriorLights:Electricity:Zone:OFFICE_PRIVATE_16 [J]
Zone,Meter,General:InteriorLights:Electricity:Zone:OFFICE_PRIVATE_16 [J]
Zone,Meter,Electricity:Zone:OFFICE_OPEN_17 [J]
Zone,Meter,InteriorLights:Electricity:Zone:OFFICE_OPEN_17 [J]
Zone,Meter,General:InteriorLights:Electricity:Zone:OFFICE_OPEN_17 [J]
Zone,Meter,Electricity:Zone:LOBBY_18 [J]
Zone,Meter,InteriorLights:Electricity:Zone:LOBBY_18 [J]
Zone,Meter,General:InteriorLights:Electricity:Zone:LOBBY_18 [J]
Zone,Meter,Electricity:Zone:CONFERENCE_18 [J]
Zone,Meter,InteriorLights:Electricity:Zone:CONFERENCE_18 [J]
Zone,Meter,General:InteriorLights:Electricity:Zone:CONFERENCE_18 [J]
Zone,Meter,Electricity:Zone:BREAK_ROOM_18 [J]
Zone,Meter,InteriorLights:Electricity:Zone:BREAK_ROOM_18 [J]
Zone,Meter,General:InteriorLights:Electricity:Zone:BREAK_ROOM_18 [J]
Zone,Meter,Electricity:Zone:MECHANICAL_18 [J]
Zone,Meter,InteriorLights:Electricity:Zone:MECHANICAL_18 [J]
Zone,Meter,General:InteriorLights:Electricity:Zone:MECHANICAL_18 [J]
Zone,Meter,Electricity:Zone:LOBBY_19 [J]
Zone,Meter,InteriorLights:Electricity:Zone:LOBBY_19 [J]
Zone,Meter,General:InteriorLights:Electricity:Zone:LOBBY_19 [J]
Zone,Meter,Electricity:Zone:BREAK_ROOM_19 [J]
Zone,Meter,InteriorLights:Electricity:Zone:BREAK_ROOM_19 [J]
Zone,Meter,General:InteriorLights:Electricity:Zone:BREAK_ROOM_19 [J]
Zone,Meter,Electricity:Zone:OFFICE_PRIVATE_19 [J]
Zone,Meter,InteriorLights:Electricity:Zone:OFFICE_PRIVATE_19 [J]
Zone,Meter,General:InteriorLights:Electricity:Zone:OFFICE_PRIVATE_19 [J]
Zone,Meter,Electricity:Zone:STORAGE_19 [J]
Zone,Meter,InteriorLights:Electricity:Zone:STORAGE_19 [J]
Zone,Meter,General:InteriorLights:Electricity:Zone:STORAGE_19 [J]
Zone,Meter,Electricity:Zone:BREAK_ROOM_21 [J]
Zone,Meter,InteriorLights:Electricity:Zone:BREAK_ROOM_21 [J]
Zone,Meter,General:InteriorLights:Electricity:Zone:BREAK_ROOM_21 [J]
Zone,Meter,Electricity:Zone:OFFICE_PRIVATE_21 [J]
Zone,Meter,InteriorLights:Electricity:Zone:OFFICE_PRIVATE_21 [J]
Zone,Meter,General:InteriorLights:Electricity:Zone:OFFICE_PRIVATE_21 [J]
Zone,Meter,Electricity:Zone:STORAGE_21 [J]
Zone,Meter,InteriorLights:Electricity:Zone:STORAGE_21 [J]
Zone,Meter,General:InteriorLights:Electricity:Zone:STORAGE_21 [J]
Zone,Meter,Electricity:Zone:BREAK_ROOM_22 [J]
Zone,Meter,InteriorLights:Electricity:Zone:BREAK_ROOM_22 [J]
Zone,Meter,General:InteriorLights:Electricity:Zone:BREAK_ROOM_22 [J]
Zone,Meter,Electricity:Zone:STORAGE_22 [J]
Zone,Meter,InteriorLights:Electricity:Zone:STORAGE_22 [J]
Zone,Meter,General:InteriorLights:Electricity:Zone:STORAGE_22 [J]
Zone,Meter,Electricity:Zone:LOBBY_23 [J]
Zone,Meter,InteriorLights:Electricity:Zone:LOBBY_23 [J]
Zone,Meter,General:InteriorLights:Electricity:Zone:LOBBY_23 [J]
Zone,Meter,Electricity:Zone:CONFERENCE_23 [J]
Zone,Meter,InteriorLights:Electricity:Zone:CONFERENCE_23 [J]
Zone,Meter,General:InteriorLights:Electricity:Zone:CONFERENCE_23 [J]
Zone,Meter,Electricity:Zone:OFFICE_OPEN_23 [J]
Zone,Meter,InteriorLights:Electricity:Zone:OFFICE_OPEN_23 [J]
Zone,Meter,General:InteriorLights:Electricity:Zone:OFFICE_OPEN_23 [J]
Zone,Meter,Electricity:Zone:OFFICE_PRIVATE_23 [J]
Zone,Meter,InteriorLights:Electricity:Zone:OFFICE_PRIVATE_23 [J]
Zone,Meter,General:InteriorLights:Electricity:Zone:OFFICE_PRIVATE_23 [J]
Zone,Meter,Electricity:Zone:LOBBY_24 [J]
Zone,Meter,InteriorLights:Electricity:Zone:LOBBY_24 [J]
Zone,Meter,General:InteriorLights:Electricity:Zone:LOBBY_24 [J]
Zone,Meter,Electricity:Zone:CONFERENCE_24 [J]
Zone,Meter,InteriorLights:Electricity:Zone:CONFERENCE_24 [J]
Zone,Meter,General:InteriorLights:Electricity:Zone:CONFERENCE_24 [J]
Zone,Meter,Electricity:Zone:BREAK_ROOM_24 [J]
Zone,Meter,InteriorLights:Electricity:Zone:BREAK_ROOM_24 [J]
Zone,Meter,General:InteriorLights:Electricity:Zone:BREAK_ROOM_24 [J]
Zone,Meter,Electricity:Zone:OFFICE_OPEN_24 [J]
Zone,Meter,InteriorLights:Electricity:Zone:OFFICE_OPEN_24 [J]
Zone,Meter,General:InteriorLights:Electricity:Zone:OFFICE_OPEN_24 [J]
Zone,Meter,Electricity:Zone:OFFICE_PRIVATE_24 [J]
Zone,Meter,InteriorLights:Electricity:Zone:OFFICE_PRIVATE_24 [J]
Zone,Meter,General:InteriorLights:Electricity:Zone:OFFICE_PRIVATE_24 [J]
Zone,Meter,Electricity:Zone:STORAGE_24 [J]
Zone,Meter,InteriorLights:Electricity:Zone:STORAGE_24 [J]
Zone,Meter,General:InteriorLights:Electricity:Zone:STORAGE_24 [J]
Zone,Meter,Electricity:Zone:BREAK_ROOM_25 [J]
Zone,Meter,InteriorLights:Electricity:Zone:BREAK_ROOM_25 [J]
Zone,Meter,General:InteriorLights:Electricity:Zone:BREAK_ROOM_25 [J]
Zone,Meter,Electricity:Zone:MECHANICAL_25 [J]
Zone,Meter,InteriorLights:Electricity:Zone:MECHANICAL_25 [J]
Zone,Meter,General:InteriorLights:Electricity:Zone:MECHANICAL_25 [J]
Zone,Meter,Electricity:Zone:OFFICE_PRIVATE_25 [J]
Zone,Meter,InteriorLights:Electricity:Zone:OFFICE_PRIVATE_25 [J]
Zone,Meter,General:InteriorLights:Electricity:Zone:OFFICE_PRIVATE_25 [J]
Zone,Meter,Electricity:Zone:LOBBY_26 [J]
Zone,Meter,InteriorLights:Electricity:Zone:LOBBY_26 [J]
Zone,Meter,General:InteriorLights:Electricity:Zone:LOBBY_26 [J]
Zone,Meter,Electricity:Zone:BREAK_ROOM_26 [J]
Zone,Meter,InteriorLights:Electricity:Zone:BREAK_ROOM_26 [J]
Zone,Meter,General:InteriorLights:Electricity:Zone:BREAK_ROOM_26 [J]
Zone,Meter,Electricity:Zone:OFFICE_OPEN_26 [J]
Zone,Meter,InteriorLights:Electricity:Zone:OFFICE_OPEN_26 [J]
Zone,Meter,General:InteriorLights:Electricity:Zone:OFFICE_OPEN_26 [J]
Zone,Meter,Electricity:Zone:MECHANICAL_27 [J]
Zone,Meter,InteriorLights:Electricity:Zone:MECHANICAL_27 [J]
Zone,Meter,General:InteriorLights:Electricity:Zone:MECHANICAL_27 [J]
Zone,Meter,Electricity:Zone:OFFICE_PRIVATE_27 [J]
Zone,Meter,InteriorLights:Electricity:Zone:OFFICE_PRIVATE_27 [J]
Zone,Meter,General:InteriorLights:Electricity:Zone:OFFICE_PRIVATE_27 [J]
Zone,Meter,Electricity:Zone:STORAGE_27 [J]
Zone,Meter,InteriorLights:Electricity:Zone:STORAGE_27 [J]
Zone,Meter,General:InteriorLights:Electricity:Zone:STORAGE_27 [J]
Zone,Meter,Electricity:Zone:CONFERENCE_28 [J]
Zone,Meter,InteriorLights:Electricity:Zone:CONFERENCE_28 [J]
Zone,Meter,General:InteriorLights:Electricity:Zone:CONFERENCE_28 [J]
Zone,Meter,Electricity:Zone:MECHANICAL_28 [J]
Zone,Meter,InteriorLights:Electricity:Zone:MECHANICAL_28 [J]
Zone,Meter,General:InteriorLights:Electricity:Zone:MECHANICAL_28 [J]
Zone,Meter,Electricity:Zone:OFFICE_OPEN_28 [J]
Zone,Meter,InteriorLights:Electricity:Zone:OFFICE_OPEN_28 [J]
Zone,Meter,General:InteriorLights:Electricity:Zone:OFFICE_OPEN_28 [J]
Zone,Meter,Electricity:Zone:OFFICE_PRIVATE_28 [J]
Zone,Meter,InteriorLights:Electricity:Zone:OFFICE_PRIVATE_28 [J]
Zone,Meter,General:InteriorLights:Electricity:Zone:OFFICE_PRIVATE_28 [J]
Zone,Meter,Electricity:Zone:STORAGE_28 [J]
Zone,Meter,InteriorLights:Electricity:Zone:STORAGE_28 [J]
Zone,Meter,General:InteriorLights:Electricity:Zone:STORAGE_28 [J]
Zone,Meter,Electricity:Zone:BREAK_ROOM_29 [J]
Zone,Meter,InteriorLights:Electricity:Zone:BREAK_ROOM_29 [J]
Zone,Meter,General:InteriorLights:Electricity:Zone:BREAK_ROOM_29 [J]
Zone,Meter,Electricity:Zone:MECHANICAL_29 [J]
Zone,Meter,InteriorLights:Electricity:Zone:MECHANICAL_29 [J]
Zone,Meter,General:InteriorLights:Electricity:Zone:MECHANICAL_29 [J]
Zone,Meter,Electricity:Zone:OFFICE_OPEN_29 [J]
Zone,Meter,InteriorLights:Electricity:Zone:OFFICE_OPEN_29 [J]
Zone,Meter,General:InteriorLights:Electricity:Zone:OFFICE_OPEN_29 [J]
Zone,Meter,Electricity:Zone:OFFICE_PRIVATE_29 [J]
Zone,Meter,InteriorLights:Electricity:Zone:OFFICE_PRIVATE_29 [J]
Zone,Meter,General:InteriorLights:Electricity:Zone:OFFICE_PRIVATE_29 [J]
Zone,Meter,Electricity:Zone:STORAGE_29 [J]
Zone,Meter,InteriorLights:Electricity:Zone:STORAGE_29 [J]
Zone,Meter,General:InteriorLights:Electricity:Zone:STORAGE_29 [J]
Zone,Meter,Electricity:Zone:CONFERENCE_30 [J]
Zone,Meter,InteriorLights:Electricity:Zone:CONFERENCE_30 [J]
Zone,Meter,General:InteriorLights:Electricity:Zone:CONFERENCE_30 [J]
Zone,Meter,Electricity:Zone:OFFICE_PRIVATE_30 [J]
Zone,Meter,InteriorLights:Electricity:Zone:OFFICE_PRIVATE_30 [J]
Zone,Meter,General:InteriorLights:Electricity:Zone:OFFICE_PRIVATE_30 [J]
Zone,Meter,Electricity:Zone:OFFICE_OPEN_31 [J]
Zone,Meter,InteriorLights:Electricity:Zone:OFFICE_OPEN_31 [J]
Zone,Meter,General:InteriorLights:Electricity:Zone:OFFICE_OPEN_31 [J]
Zone,Meter,Electricity:Zone:LOBBY_32 [J]
Zone,Meter,InteriorLights:Electricity:Zone:LOBBY_32 [J]
Zone,Meter,General:InteriorLights:Electricity:Zone:LOBBY_32 [J]
Zone,Meter,Electricity:Zone:OFFICE_PRIVATE_32 [J]
Zone,Meter,InteriorLights:Electricity:Zone:OFFICE_PRIVATE_32 [J]
Zone,Meter,General:InteriorLights:Electricity:Zone:OFFICE_PRIVATE_32 [J]
Zone,Meter,Electricity:Zone:STORAGE_32 [J]
Zone,Meter,InteriorLights:Electricity:Zone:STORAGE_32 [J]
Zone,Meter,General:InteriorLights:Electricity:Zone:STORAGE_32 [J]
Zone,Meter,Electricity:Zone:OFFICE_OPEN_33 [J]
Zone,Meter,InteriorLights:Electricity:Zone:OFFICE_OPEN_33 [J]
Zone,Meter,General:InteriorLights:Electricity:Zone:OFFICE_OPEN_33 [J]
Zone,Meter,Electricity:Zone:OFFICE_PRIVATE_33 [J]
Zone,Meter,InteriorLights:Electricity:Zone:OFFICE_PRIVATE_33 [J]
Zone,Meter,General:InteriorLights:Electricity:Zone:OFFICE_PRIVATE_33 [J]
Zone,Meter,Electricity:Zone:STORAGE_33 [J]
Zone,Meter,InteriorLights:Electricity:Zone:STORAGE_33 [J]
Zone,Meter,General:InteriorLights:Electricity:Zone:STORAGE_33 [J]
Zone,Meter,Electricity:Zone:CONFERENCE_34 [J]
Zone,Meter,InteriorLights:Electricity:Zone:CONFERENCE_34 [J]
Zone,Meter,General:InteriorLights:Electricity:Zone:CONFERENCE_34 [J]
Zone,Meter,Electricity:Zone:BREAK_ROOM_34 [J]
Zone,Meter,InteriorLights:Electricity:Zone:BREAK_ROOM_34 [J]
Zone,Meter,General:InteriorLights:Electricity:Zone:BREAK_ROOM_34 [J]
Zone,Meter,Electricity:Zone:MECHANICAL_34 [J]
Zone,Meter,InteriorLights:Electricity:Zone:MECHANICAL_34 [J]
Zone,Meter,General:InteriorLights:Electricity:Zone:MECHANICAL_34 [J]
Zone,Meter,Electricity:Zone:OFFICE_PRIVATE_34 [J]
Zone,Meter,InteriorLights:Electricity:Zone:OFFICE_PRIVATE_34 [J]
Zone,Meter,General:InteriorLights:Electricity:Zone:OFFICE_PRIVATE_34 [J]
Zone,Meter,Electricity:Zone:STORAGE_34 [J]
Zone,Meter,InteriorLights:Electricity:Zone:STORAGE_34 [J]
Zone,Meter,General:InteriorLights:Electricity:Zone:STORAGE_34 [J]
Zone,Meter,Electricity:Zone:LOBBY_35 [J]
Zone,Meter,InteriorLights:Electricity:Zone:LOBBY_35 [J]
Zone,Meter,General:InteriorLights:Electricity:Zone:LOBBY_35 [J]
Zone,Meter,Electricity:Zone:CONFERENCE_35 [J]
Zone,Meter,InteriorLights:Electricity:Zone:CONFERENCE_35 [J]
Zone,Meter,General:InteriorLights:Electricity:Zone:CONFERENCE_35 [J]
Zone,Meter,Electricity:Zone:MECHANICAL_35 [J]
Zone,Meter,InteriorLights:Electricity:Zone:MECHANICAL_35 [J]
Zone,Meter,General:InteriorLights:Electricity:Zone:MECHANICAL_35 [J]
Zone,Meter,Electricity:Zone:LOBBY_36 [J]
Zone,Meter,InteriorLights:Electricity:Zone:LOBBY_36 [J]
Zone,Meter,General:InteriorLights:Electricity:Zone:LOBBY_36 [J]
Zone,Meter,Electricity:Zone:CONFERENCE_36 [J]
Zone,Meter,InteriorLights:Electricity:Zone:CONFERENCE_36 [J]
Zone,Meter,General:InteriorLights:Electricity:Zone:CONFERENCE_36 [J]
Zone,Meter,Electricity:Zone:MECHANICAL_36 [J]
Zone,Meter,InteriorLights:Electricity:Zone:MECHANICAL_36 [J]
Zone,Meter,General:InteriorLights:Electricity:Zone:MECHANICAL_36 [J]
Zone,Meter,Electricity:Zone:OFFICE_OPEN_36 [J]
Zone,Meter,InteriorLights:Electricity:Zone:OFFICE_OPEN_36 [J]
Zone,Meter,General:InteriorLights:Electricity:Zone:OFFICE_OPEN_36 [J]
Zone,Meter,Electricity:Zone:STORAGE_36 [J]
Zone,Meter,InteriorLights:Electricity:Zone:STORAGE_36 [J]
Zone,Meter,General:InteriorLights:Electricity:Zone:STORAGE_36 [J]
Zone,Meter,Electricity:Zone:LOBBY_37 [J]
Zone,Meter,InteriorLights:Electricity:Zone:LOBBY_37 [J]
Zone,Meter,General:InteriorLights:Electricity:Zone:LOBBY_37 [J]
Zone,Meter,Electricity:Zone:BREAK_ROOM_37 [J]
Zone,Meter,InteriorLights:Electricity:Zone:BREAK_ROOM_37 [J]
Zone,Meter,General:InteriorLights:Electricity:Zone:BREAK_ROOM_37 [J]
Zone,Meter,Electricity:Zone:OFFICE_PRIVATE_37 [J]
Zone,Meter,InteriorLights:Electricity:Zone:OFFICE_PRIVATE_37 [J]
Zone,Meter,General:InteriorLights:Electricity:Zone:OFFICE_PRIVATE_37 [J]
Zone,Meter,Electricity:Zone:STORAGE_37 [J]
Zone,Meter,InteriorLights:Electricity:Zone:STORAGE_37 [J]
Zone,Meter,General:InteriorLights:Electricity:Zone:STORAGE_37 [J]
Zone,Meter,Electricity:Zone:LOBBY_38 [J]
Zone,Meter,InteriorLights:Electricity:Zone:LOBBY_38 [J]
Zone,Meter,General:InteriorLights:Electricity:Zone:LOBBY_38 [J]
Zone,Meter,Electricity:Zone:BREAK_ROOM_38 [J]
Zone,Meter,InteriorLights:Electricity:Zone:BREAK_ROOM_38 [J]
Zone,Meter,General:InteriorLights:Electricity:Zone:BREAK_ROOM_38 [J]
Zone,Meter,Electricity:Zone:MECHANICAL_38 [J]
Zone,Meter,InteriorLights:Electricity:Zone:MECHANICAL_38 [J]
Zone,Meter,General:InteriorLights:Electricity:Zone:MECHANICAL_38 [J]
Zone,Meter,Electricity:Zone:OFFICE_PRIVATE_38 [J]
Zone,Meter,InteriorLights:Electricity:Zone:OFFICE_PRIVATE_38 [J]
Zone,Meter,General:InteriorLights:Electricity:Zone:OFFICE_PRIVATE_38 [J]
Zone,Meter,Electricity:Zone:CONFERENCE_39 [J]
Zone,Meter,InteriorLights:Electricity:Zone:CONFERENCE_39 [J]
Zone,Meter,General:InteriorLights:Electricity:Zone:CONFERENCE_39 [J]
Zone,Meter,Electricity:Zone:OFFICE_OPEN_40 [J]
Zone,Meter,InteriorLights:Electricity:Zone:OFFICE_OPEN_40 [J]
Zone,Meter,General:InteriorLights:Electricity:Zone:OFFICE_OPEN_40 [J]
Zone,Meter,Electricity:Zone:OFFICE_PRIVATE_40 [J]
Zone,Meter,InteriorLights:Electricity:Zone:OFFICE_PRIVATE_40 [J]
Zone,Meter,General:InteriorLights:Electricity:Zone:OFFICE_PRIVATE_40 [J]
Zone,Meter,Electricity:Zone:STORAGE_40 [J]
Zone,Meter,InteriorLights:Electricity:Zone:STORAGE_40 [J]
Zone,Meter,General:InteriorLights:Electricity:Zone:STORAGE_40 [J]
Zone,Meter,Electricity:Zone:CONFERENCE_41 [J]
Zone,Meter,InteriorLights:Electricity:Zone:CONFERENCE_41 [J]
Zone,Meter,General:InteriorLights:Electricity:Zone:CONFERENCE_41 [J]
Zone,Meter,Electricity:Zone:OFFICE_OPEN_41 [J]
Zone,Meter,InteriorLights:Electricity:Zone:OFFICE_OPEN_41 [J]
Zone,Meter,General:InteriorLights:Electricity:Zone:OFFICE_OPEN_41 [J]
Zone,Meter,Electricity:Zone:OFFICE_PRIVATE_41 [J]
Zone,Meter,InteriorLights:Electricity:Zone:OFFICE_PRIVATE_41 [J]
Zone,Meter,General:InteriorLights:Electricity:Zone:OFFICE_PRIVATE_41 [J]
Zone,Meter,Electricity:Zone:STORAGE_41 [J]
Zone,Meter,InteriorLights:Electricity:Zone:STORAGE_41 [J]
Zone,Meter,General:InteriorLights:Electricity:Zone:STORAGE_41 [J]
Zone,Meter,Electricity:Zone:CONFERENCE_42 [J]
Zone,Meter,InteriorLights:Electricity:Zone:CONFERENCE_42 [J]
Zone,Meter,General:InteriorLights:Electricity:Zone:CONFERENCE_42 [J]
Zone,Meter,Electricity:Zone:OFFICE_PRIVATE_42 [J]
Zone,Meter,InteriorLights:Electricity:Zone:OFFICE_PRIVATE_42 [J]
Zone,Meter,General:InteriorLights:Electricity:Zone:OFFICE_PRIVATE_42 [J]
Zone,Meter,Electricity:Zone:LOBBY_44 [J]
Zone,Meter,InteriorLights:Electricity:Zone:LOBBY_44 [J]
Zone,Meter,General:InteriorLights:Electricity:Zone:LOBBY_44 [J]
Zone,Meter,Electricity:Zone:CONFERENCE_44 [J]
Zone,Meter,InteriorLights:Electricity:Zone:CONFERENCE_44 [J]
Zone,Meter,General:InteriorLights:Electricity:Zone:CONFERENCE_44 [J]
Zone,Meter,Electricity:Zone:LOBBY_45 [J]
Zone,Meter,InteriorLights:Electricity:Zone:LOBBY_45 [J]
Zone,Meter,General:InteriorLights:Electricity:Zone:LOBBY_45 [J]
Zone,Meter,Electricity:Zone:CONFERENCE_45 [J]
Zone,Meter,InteriorLights:Electricity:Zone:CONFERENCE_45 [J]
Zone,Meter,General:InteriorLights:Electricity:Zone:CONFERENCE_45 [J]
Zone,Meter,Electricity:Zone:OFFICE_OPEN_45 [J]
Zone,Meter,InteriorLights:Electricity:Zone:OFFICE_OPEN_45 [J]
Zone,Meter,General:InteriorLights:Electricity:Zone:OFFICE_OPEN_45 [J]
Zone,Meter,Electricity:Zone:CONFERENCE_46 [J]
Zone,Meter,InteriorLights:Electricity:Zone:CONFERENCE_46 [J]
Zone,Meter,General:InteriorLights:Electricity:Zone:CONFERENCE_46 [J]
Zone,Meter,Electricity:Zone:BREAK_ROOM_46 [J]
Zone,Meter,InteriorLights:Electricity:Zone:BREAK_ROOM_46 [J]
Zone,Meter,General:InteriorLights:Electricity:Zone:BREAK_ROOM_46 [J]
Zone,Meter,Electricity:Zone:OFFICE_OPEN_46 [J]
Zone,Meter,InteriorLights:Electricity:Zone:OFFICE_OPEN_46 [J]
Zone,Meter,General:InteriorLights:Electricity:Zone:OFFICE_OPEN_46 [J]
Zone,Meter,Electricity:Zone:OFFICE_PRIVATE_46 [J]
Zone,Meter,InteriorLights:Electricity:Zone:OFFICE_PRIVATE_46 [J]
Zone,Meter,General:InteriorLights:Electricity:Zone:OFFICE_PRIVATE_46 [J]
Zone,Meter,Electricity:Zone:STORAGE_46 [J]
Zone,Meter,InteriorLights:Electricity:Zone:STORAGE_46 [J]
Zone,Meter,General:InteriorLights:Electricity:Zone:STORAGE_46 [J]
Zone,Meter,Electricity:Zone:CONFERENCE_47 [J]
Zone,Meter,InteriorLights:Electricity:Zone:CONFERENCE_47 [J]
Zone,Meter,General:InteriorLights:Electricity:Zone:CONFERENCE_47 [J]
Zone,Meter,Electricity:Zone:BREAK_ROOM_47 [J]
Zone,Meter,InteriorLights:Electricity:Zone:BREAK_ROOM_47 [J]
Zone,Meter,General:InteriorLights:Electricity:Zone:BREAK_ROOM_47 [J]
Zone,Meter,Electricity:Zone:OFFICE_OPEN_47 [J]
Zone,Meter,InteriorLights:Electricity:Zone:OFFICE_OPEN_47 [J]
Zone,Meter,General:InteriorLights:Electricity:Zone:OFFICE_OPEN_47 [J]
Zone,Meter,Electricity:Zone:OFFICE_PRIVATE_47 [J]
Zone,Meter,InteriorLights:Electricity:Zone:OFFICE_PRIVATE_47 [J]
Zone,Meter,General:InteriorLights:Electricity:Zone:OFFICE_PRIVATE_47 [J]
Zone,Meter,Electricity:Zone:STORAGE_47 [J]
Zone,Meter,InteriorLights:Electricity:Zone:STORAGE_47 [J]
Zone,Meter,General:InteriorLights:Electricity:Zone:STORAGE_47 [J]
Zone,Meter,Electricity:Zone:LOBBY_48 [J]
Zone,Meter,InteriorLights:Electricity:Zone:LOBBY_48 [J]
Zone,Meter,General:InteriorLights:Electricity:Zone:LOBBY_48 [J]
Zone,Meter,Electricity:Zone:CONFERENCE_48 [J]
Zone,Meter,InteriorLights:Electricity:Zone:CONFERENCE_48 [J]
Zone,Meter,General:InteriorLights:Electricity:Zone:CONFERENCE_48 [J]
Zone,Meter,Electricity:Zone:MECHANICAL_48 [J]
Zone,Meter,InteriorLights:Electricity:Zone:MECHANICAL_48 [J]
Zone,Meter,General:InteriorLights:Electricity:Zone:MECHANICAL_48 [J]
Zone,Meter,Electricity:Zone:OFFICE_PRIVATE_48 [J]
Zone,Meter,InteriorLights:Electricity:Zone:OFFICE_PRIVATE_48 [J]
Zone,Meter,General:InteriorLights:Electricity:Zone:OFFICE_PRIVATE_48 [J]
Zone,Meter,Electricity:Zone:CONFERENCE_49 [J]
Zone,Meter,InteriorLights:Electricity:Zone:CONFERENCE_49 [J]
Zone,Meter,General:InteriorLights:Electricity:Zone:CONFERENCE_49 [J]
Zone,Meter,Electricity:Zone:OFFICE_PRIVATE_49 [J]
Zone,Meter,InteriorLights:Electricity:Zone:OFFICE_PRIVATE_49 [J]
Zone,Meter,General:InteriorLights:Electricity:Zone:OFFICE_PRIVATE_49 [J]
Zone,Meter,Electricity:Zone:STORAGE_49 [J]
Zone,Meter,InteriorLights:Electricity:Zone:STORAGE_49 [J]
Zone,Meter,General:InteriorLights:Electricity:Zone:STORAGE_49 [J]
Zone,Meter,Electricity:Zone:BREAK_ROOM_50 [J]
Zone,Meter,InteriorLights:Electricity:Zone:BREAK_ROOM_50 [J]
Zone,Meter,General:InteriorLights:Electricity:Zone:BREAK_ROOM_50 [J]
Zone,Meter,Electricity:Zone:OFFICE_PRIVATE_50 [J]
Zone,Meter,InteriorLights:Electricity:Zone:OFFICE_PRIVATE_50 [J]
Zone,Meter,General:InteriorLights:Electricity:Zone:OFFICE_PRIVATE_50 [J]
Zone,Meter,Electricity:Zone:OFFICE_PRIVATE_51 [J]
Zone,Meter,InteriorLights:Electricity:Zone:OFFICE_PRIVATE_51 [J]
Zone,Meter,General:InteriorLights:Electricity:Zone:OFFICE_PRIVATE_51 [J]
Zone,Meter,Electricity:Zone:STORAGE_51 [J]
Zone,Meter,InteriorLights:Electricity:Zone:STORAGE_51 [J]
Zone,Meter,General:InteriorLights:Electricity:Zone:STORAGE_51 [J]
Zone,Meter,Electricity:Zone:BREAK_ROOM_52 [J]
Zone,Meter,InteriorLights:Electricity:Zone:BREAK_ROOM_52 [J]
Zone,Meter,General:InteriorLights:Electricity:Zone:BREAK_ROOM_52 [J]
Zone,Meter,Electricity:Zone:MECHANICAL_52 [J]
Zone,Meter,InteriorLights:Electricity:Zone:MECHANICAL_52 [J]
Zone,Meter,General:InteriorLights:Electricity:Zone:MECHANICAL_52 [J]
Zone,Meter,Electricity:Zone:STORAGE_52 [J]
Zone,Meter,InteriorLights:Electricity:Zone:STORAGE_52 [J]
Zone,Meter,General:InteriorLights:Electricity:Zone:STORAGE_52 [J]
Zone,Meter,Electricity:Zone:BREAK_ROOM_53 [J]
Zone,Meter,InteriorLights:Electricity:Zone:BREAK_ROOM_53 [J]
Zone,Meter,General:InteriorLights:Electricity:Zone:BREAK_ROOM_53 [J]
Zone,Meter,Electricity:Zone:MECHANICAL_53 [J]
Zone,Meter,InteriorLights:Electricity:Zone:MECHANICAL_53 [J]
Zone,Meter,General:InteriorLights:Electricity:Zone:MECHANICAL_53 [J]
Zone,Meter,Electricity:Zone:OFFICE_OPEN_53 [J]
Zone,Meter,InteriorLights:Electricity:Zone:OFFICE_OPEN_53 [J]
Zone,Meter,General:InteriorLights:Electricity:Zone:OFFICE_OPEN_53 [J]
Zone,Meter,Electricity:Zone:STORAGE_53 [J]
Zone,Meter,InteriorLights:Electricity:Zone:STORAGE_53 [J]
Zone,Meter,General:InteriorLights:Electricity:Zone:STORAGE_53 [J]
Zone,Meter,Electricity:Zone:LOBBY_54 [J]
Zone,Meter,InteriorLights:Electricity:Zone:LOBBY_54 [J]
Zone,Meter,General:InteriorLights:Electricity:Zone:LOBBY_54 [J]
Zone,Meter,Electricity:Zone:OFFICE_PRIVATE_54 [J]
Zone,Meter,InteriorLights:Electricity:Zone:OFFICE_PRIVATE_54 [J]
Zone,Meter,General:InteriorLights:Electricity:Zone:OFFICE_PRIVATE_54 [J]
Zone,Meter,Electricity:Zone:STORAGE_54 [J]
Zone,Meter,InteriorLights:Electricity:Zone:STORAGE_54 [J]
Zone,Meter,General:InteriorLights:Electricity:Zone:STORAGE_54 [J]
Zone,Meter,Electricity:Zone:LOBBY_55 [J]
Zone,Meter,InteriorLights:Electricity:Zone:LOBBY_55 [J]
Zone,Meter,General:InteriorLights:Electricity:Zone:LOBBY_55 [J]
Zone,Meter,Electricity:Zone:MECHANICAL_55 [J]
Zone,Meter,InteriorLights:Electricity:Zone:MECHANICAL_55 [J]
Zone,Meter,General:InteriorLights:Electricity:Zone:MECHANICAL_55 [J]
Zone,Meter,Electricity:Zone:OFFICE_OPEN_55 [J]
Zone,Meter,InteriorLights:Electricity:Zone:OFFICE_OPEN_55 [J]
Zone,Meter,General:InteriorLights:Electricity:Zone:OFFICE_OPEN_55 [J]
Zone,Meter,Electricity:Zone:OFFICE_PRIVATE_55 [J]
Zone,Meter,InteriorLights:Electricity:Zone:OFFICE_PRIVATE_55 [J]
Zone,Meter,General:InteriorLights:Electricity:Zone:OFFICE_PRIVATE_55 [J]
Zone,Meter,Electricity:Zone:STORAGE_55 [J]
Zone,Meter,InteriorLights:Electricity:Zone:STORAGE_55 [J]
Zone,Meter,General:InteriorLights:Electricity:Zone:STORAGE_55 [J]
Zone,Meter,Electricity:Zone:LOBBY_56 [J]
Zone,Meter,InteriorLights:Electricity:Zone:LOBBY_56 [J]
Zone,Meter,General:InteriorLights:Electricity:Zone:LOBBY_56 [J]
Zone,Meter,Electricity:Zone:MECHANICAL_56 [J]
Zone,Meter,InteriorLights:Electricity:Zone:MECHANICAL_56 [J]
Zone,Meter,General:InteriorLights:Electricity:Zone:MECHANICAL_56 [J]
Zone,Meter,Electricity:Zone:OFFICE_PRIVATE_56 [J]
Zone,Meter,InteriorLights:Electricity:Zone:OFFICE_PRIVATE_56 [J]
Zone,Meter,General:InteriorLights:Electricity:Zone:OFFICE_PRIVATE_56 [J]
Zone,Meter,Electricity:Zone:STORAGE_56 [J]
Zone,Meter,InteriorLights:Electricity:Zone:STORAGE_56 [J]
Zone,Meter,General:InteriorLights:Electricity:Zone:STORAGE_56 [J]
Zone,Meter,Electricity:Zone:CONFERENCE_57 [J]
Zone,Meter,InteriorLights:Electricity:Zone:CONFERENCE_57 [J]
Zone,Meter,General:InteriorLights:Electricity:Zone:CONFERENCE_57 [J]
Zone,Meter,Electricity:Zone:BREAK_ROOM_57 [J]
Zone,Meter,InteriorLights:Electricity:Zone:BREAK_ROOM_57 [J]
Zone,Meter,General:InteriorLights:Electricity:Zone:BREAK_ROOM_57 [J]
Zone,Meter,Electricity:Zone:OFFICE_PRIVATE_57 [J]
Zone,Meter,InteriorLights:Electricity:Zone:OFFICE_PRIVATE_57 [J]
Zone,Meter,General:InteriorLights:Electricity:Zone:OFFICE_PRIVATE_57 [J]
Zone,Meter,Electricity:Zone:STORAGE_57 [J]
Zone,Meter,InteriorLights:Electricity:Zone:STORAGE_57 [J]
Zone,Meter,General:InteriorLights:Electricity:Zone:STORAGE_57 [J]
Zone,Meter,Electricity:Zone:CONFERENCE_58 [J]
Zone,Meter,InteriorLights:Electricity:Zone:CONFERENCE_58 [J]
Zone,Meter,General:InteriorLights:Electricity:Zone:CONFERENCE_58 [J]
Zone,Meter,Electricity:Zone:MECHANICAL_58 [J]
Zone,Meter,InteriorLights:Electricity:Zone:MECHANICAL_58 [J]
Zone,Meter,General:InteriorLights:Electricity:Zone:MECHANICAL_58 [J]
Zone,Meter,Electricity:Zone:CONFERENCE_59 [J]
Zone,Meter,InteriorLights:Electricity:Zone:CONFERENCE_59 [J]
Zone,Meter,General:InteriorLights:Electricity:Zone:CONFERENCE_59 [J]
Zone,Meter,Electricity:Zone:STORAGE_59 [J]
Zone,Meter,InteriorLights:Electricity:Zone:STORAGE_59 [J]
Zone,Meter,General:InteriorLights:Electricity:Zone:STORAGE_59 [J]
Zone,Meter,Electricity:Zone:BREAK_ROOM_60 [J]
Zone,Meter,InteriorLights:Electricity:Zone:BREAK_ROOM_60 [J]
Zone,Meter,General:InteriorLights:Electricity:Zone:BREAK_ROOM_60 [J]
Zone,Meter,Electricity:Zone:MECHANICAL_60 [J]
Zone,Meter,InteriorLights:Electricity:Zone:MECHANICAL_60 [J]
Zone,Meter,General:InteriorLights:Electricity:Zone:MECHANICAL_60 [J]
Zone,Meter,Electricity:Zone:OFFICE_OPEN_60 [J]
Zone,Meter,InteriorLights:Electricity:Zone:OFFICE_OPEN_60 [J]
Zone,Meter,General:InteriorLights:Electricity:Zone:OFFICE_OPEN_60 [J]
Zone,Meter,Electricity:Zone:STORAGE_60 [J]
Zone,Meter,InteriorLights:Electricity:Zone:STORAGE_60 [J]
Zone,Meter,General:InteriorLights:Electricity:Zone:STORAGE_60 [J]
Zone,Meter,Electricity:Zone:CONFERENCE_61 [J]
Zone,Meter,InteriorLights:Electricity:Zone:CONFERENCE_61 [J]
Zone,Meter,General:InteriorLights:Electricity:Zone:CONFERENCE_61 [J]
Zone,Meter,Electricity:Zone:MECHANICAL_61 [J]
Zone,Meter,InteriorLights:Electricity:Zone:MECHANICAL_61 [J]
Zone,Meter,General:InteriorLights:Electricity:Zone:MECHANICAL_61 [J]
Zone,Meter,Electricity:Zone:OFFICE_PRIVATE_61 [J]
Zone,Meter,InteriorLights:Electricity:Zone:OFFICE_PRIVATE_61 [J]
Zone,Meter,General:InteriorLights:Electricity:Zone:OFFICE_PRIVATE_61 [J]
Zone,Meter,Electricity:Zone:LOBBY_62 [J]
Zone,Meter,InteriorLights:Electricity:Zone:LOBBY_62 [J]
Zone,Meter,General:InteriorLights:Electricity:Zone:LOBBY_62 [J]
Zone,Meter,Electricity:Zone:MECHANICAL_62 [J]
Zone,Meter,InteriorLights:Electricity:Zone:MECHANICAL_62 [J]
Zone,Meter,General:InteriorLights:Electricity:Zone:MECHANICAL_62 [J]
Zone,Meter,Electricity:Zone:LOBBY_63 [J]
Zone,Meter,InteriorLights:Electricity:Zone:LOBBY_63 [J]
Zone,Meter,General:InteriorLights:Electricity:Zone:LOBBY_63 [J]
Zone,Meter,Electricity:Zone:CONFERENCE_63 [J]
Zone,Meter,InteriorLights:Electricity:Zone:CONFERENCE_63 [J]
Zone,Meter,General:InteriorLights:Electricity:Zone:CONFERENCE_63 [J]
Zone,Meter,Electricity:Zone:LOBBY_64 [J]
Zone,Meter,InteriorLights:Electricity:Zone:LOBBY_64 [J]
Zone,Meter,General:InteriorLights:Electricity:Zone:LOBBY_64 [J]
Zone,Meter,Electricity:Zone:BREAK_ROOM_64 [J]
Zone,Meter,InteriorLights:Electricity:Zone:BREAK_ROOM_64 [J]
Zone,Meter,General:InteriorLights:Electricity:Zone:BREAK_ROOM_64 [J]
Zone,Meter,Electricity:Zone:MECHANICAL_64 [J]
Zone,Meter,InteriorLights:Electricity:Zone:MECHANICAL_64 [J]
Zone,Meter,General:InteriorLights:Electricity:Zone:MECHANICAL_64 [J]
Zone,Meter,Electricity:Zone:STORAGE_64 [J]
Zone,Meter,InteriorLights:Electricity:Zone:STORAGE_64 [J]
Zone,Meter,General:InteriorLights:Electricity:Zone:STORAGE_64 [J]
Zone,Meter,Electricity:Zone:LOBBY_65 [J]
Zone,Meter,InteriorLights:Electricity:Zone:LOBBY_65 [J]
Zone,Meter,General:InteriorLights:Electricity:Zone:LOBBY_65 [J]
Zone,Meter,Electricity:Zone:OFFICE_PRIVATE_65 [J]
Zone,Meter,InteriorLights:Electricity:Zone:OFFICE_PRIVATE_65 [J]
Zone,Meter,General:InteriorLights:Electricity:Zone:OFFICE_PRIVATE_65 [J]
Zone,Meter,Electricity:Zone:MECHANICAL_66 [J]
Zone,Meter,InteriorLights:Electricity:Zone:MECHANICAL_66 [J]
Zone,Meter,General:InteriorLights:Electricity:Zone:MECHANICAL_66 [J]
Zone,Meter,Electricity:Zone:CONFERENCE_67 [J]
Zone,Meter,InteriorLights:Electricity:Zone:CONFERENCE_67 [J]
Zone,Meter,General:InteriorLights:Electricity:Zone:CONFERENCE_67 [J]
Zone,Meter,Electricity:Zone:BREAK_ROOM_67 [J]
Zone,Meter,InteriorLights:Electricity:Zone:BREAK_ROOM_67 [J]
Zone,Meter,General:InteriorLights:Electricity:Zone:BREAK_ROOM_67 [J]
Zone,Meter,Electricity:Zone:MECHANICAL_67 [J]
Zone,Meter,InteriorLights:Electricity:Zone:MECHANICAL_67 [J]
Zone,Meter,General:InteriorLights:Electricity:Zone:MECHANICAL_67 [J]
Zone,Meter,Electricity:Zone:OFFICE_OPEN_67 [J]
Zone,Meter,InteriorLights:Electricity:Zone:OFFICE_OPEN_67 [J]
Zone,Meter,General:InteriorLights:Electricity:Zone:OFFICE_OPEN_67 [J]
Zone,Meter,Electricity:Zone:OFFICE_PRIVATE_67 [J]
Zone,Meter,InteriorLights:Electricity:Zone:OFFICE_PRIVATE_67 [J]
Zone,Meter,General:InteriorLights:Electricity:Zone:OFFICE_PRIVATE_67 [J]
Zone,Meter,Electricity:Zone:CONFERENCE_68 [J]
Zone,Meter,InteriorLights:Electricity:Zone:CONFERENCE_68 [J]
Zone,Meter,General:InteriorLights:Electricity:Zone:CONFERENCE_68 [J]
Zone,Meter,Electricity:Zone:BREAK_ROOM_68 [J]
Zone,Meter,InteriorLights:Electricity:Zone:BREAK_ROOM_68 [J]
Zone,Meter,General:InteriorLights:Electricity:Zone:BREAK_ROOM_68 [J]
Zone,Meter,Electricity:Zone:OFFICE_OPEN_68 [J]
Zone,Meter,InteriorLights:Electricity:Zone:OFFICE_OPEN_68 [J]
Zone,Meter,General:InteriorLights:Electricity:Zone:OFFICE_OPEN_68 [J]
Zone,Meter,Electricity:Zone:OFFICE_PRIVATE_68 [J]
Zone,Meter,InteriorLights:Electricity:Zone:OFFICE_PRIVATE_68 [J]
Zone,Meter,General:InteriorLights:Electricity:Zone:OFFICE_PRIVATE_68 [J]
Zone,Meter,Electricity:Zone:LOBBY_69 [J]
Zone,Meter,InteriorLights:Electricity:Zone:LOBBY_69 [J]
Zone,Meter,General:InteriorLights:Electricity:Zone:LOBBY_69 [J]
Zone,Meter,Electricity:Zone:MECHANICAL_69 [J]
Zone,Meter,InteriorLights:Electricity:Zone:MECHANICAL_69 [J]
Zone,Meter,General:InteriorLights:Electricity:Zone:MECHANICAL_69 [J]
Zone,Meter,Electricity:Zone:OFFICE_OPEN_69 [J]
Zone,Meter,InteriorLights:Electricity:Zone:OFFICE_OPEN_69 [J]
Zone,Meter,General:InteriorLights:Electricity:Zone:OFFICE_OPEN_69 [J]
Zone,Meter,Electricity:Zone:OFFICE_PRIVATE_69 [J]
Zone,Meter,InteriorLights:Electricity:Zone:OFFICE_PRIVATE_69 [J]
Zone,Meter,General:InteriorLights:Electricity:Zone:OFFICE_PRIVATE_69 [J]
Zone,Meter,Electricity:Zone:LOBBY_70 [J]
Zone,Meter,InteriorLights:Electricity:Zone:LOBBY_70 [J]
Zone,Meter,General:InteriorLights:Electricity:Zone:LOBBY_70 [J]
Zone,Meter,Electricity:Zone:BREAK_ROOM_70 [J]
Zone,Meter,InteriorLights:Electricity:Zone:BREAK_ROOM_70 [J]
Zone,Meter,General:InteriorLights:Electricity:Zone:BREAK_ROOM_70 [J]
Zone,Meter,Electricity:Zone:MECHANICAL_70 [J]
Zone,Meter,InteriorLights:Electricity:Zone:MECHANICAL_70 [J]
Zone,Meter,General:InteriorLights:Electricity:Zone:MECHANICAL_70 [J]
Zone,Meter,Electricity:Zone:OFFICE_PRIVATE_70 [J]
Zone,Meter,InteriorLights:Electricity:Zone:OFFICE_PRIVATE_70 [J]
Zone,Meter,General:InteriorLights:Electricity:Zone:OFFICE_PRIVATE_70 [J]
Zone,Meter,Electricity:Zone:MECHANICAL_71 [J]
Zone,Meter,InteriorLights:Electricity:Zone:MECHANICAL_71 [J]
Zone,Meter,General:InteriorLights:Electricity:Zone:MECHANICAL_71 [J]
Zone,Meter,Electricity:Zone:STORAGE_71 [J]
Zone,Meter,InteriorLights:Electricity:Zone:STORAGE_71 [J]
Zone,Meter,General:InteriorLights:Electricity:Zone:STORAGE_71 [J]
Zone,Meter,Electricity:Zone:LOBBY_72 [J]
Zone,Meter,InteriorLights:Electricity:Zone:LOBBY_72 [J]
Zone,Meter,General:InteriorLights:Electricity:Zone:LOBBY_72 [J]
Zone,Meter,Electricity:Zone:BREAK_ROOM_72 [J]
Zone,Meter,InteriorLights:Electricity:Zone:BREAK_ROOM_72 [J]
Zone,Meter,General:InteriorLights:Electricity:Zone:BREAK_ROOM_72 [J]
Zone,Meter,Electricity:Zone:OFFICE_PRIVATE_72 [J]
Zone,Meter,InteriorLights:Electricity:Zone:OFFICE_PRIVATE_72 [J]
Zone,Meter,General:InteriorLights:Electricity:Zone:OFFICE_PRIVATE_72 [J]
Zone,Meter,Electricity:Zone:LOBBY_73 [J]
Zone,Meter,InteriorLights:Electricity:Zone:LOBBY_73 [J]
Zone,Meter,General:InteriorLights:Electricity:Zone:LOBBY_73 [J]
Zone,Meter,Electricity:Zone:CONFERENCE_73 [J]
Zone,Meter,InteriorLights:Electricity:Zone:CONFERENCE_73 [J]
Zone,Meter,General:InteriorLights:Electricity:Zone:CONFERENCE_73 [J]
Zone,Meter,Electricity:Zone:MECHANICAL_73 [J]
Zone,Meter,InteriorLights:Electricity:Zone:MECHANICAL_73 [J]
Zone,Meter,General:InteriorLights:Electricity:Zone:MECHANICAL_73 [J]
Zone,Meter,Electricity:Zone:STORAGE_73 [J]
Zone,Meter,InteriorLights:Electricity:Zone:STORAGE_73 [J]
Zone,Meter,General:InteriorLights:Electricity:Zone:STORAGE_73 [J]
Zone,Meter,Electricity:Zone:LOBBY_74 [J]
Zone,Meter,InteriorLights:Electricity:Zone:LOBBY_74 [J]
Zone,Meter,General:InteriorLights:Electricity:Zone:LOBBY_74 [J]
Zone,Meter,Electricity:Zone:OFFICE_PRIVATE_74 [J]
Zone,Meter,InteriorLights:Electricity:Zone:OFFICE_PRIVATE_74 [J]
Zone,Meter,General:InteriorLights:Electricity:Zone:OFFICE_PRIVATE_74 [J]
Zone,Meter,Electricity:Zone:LOBBY_76 [J]
Zone,Meter,InteriorLights:Electricity:Zone:LOBBY_76 [J]
Zone,Meter,General:InteriorLights:Electricity:Zone:LOBBY_76 [J]
Zone,Meter,Electricity:Zone:OFFICE_OPEN_76 [J]
Zone,Meter,InteriorLights:Electricity:Zone:OFFICE_OPEN_76 [J]
Zone,Meter,General:InteriorLights:Electricity:Zone:OFFICE_OPEN_76 [J]
Zone,Meter,Electricity:Zone:OFFICE_PRIVATE_76 [J]
Zone,Meter,InteriorLights:Electricity:Zone:OFFICE_PRIVATE_76 [J]
Zone,Meter,General:InteriorLights:Electricity:Zone:OFFICE_PRIVATE_76 [J]
Zone,Meter,Electricity:Zone:STORAGE_76 [J]
Zone,Meter,InteriorLights:Electricity:Zone:STORAGE_76 [J]
Zone,Meter,General:InteriorLights:Electricity:Zone:STORAGE_76 [J]
Zone,Meter,Electricity:Zone:MECHANICAL_77 [J]
Zone,Meter,InteriorLights:Electricity:Zone:MECHANICAL_77 [J]
Zone,Meter,General:InteriorLights:Electricity:Zone:MECHANICAL_77 [J]
Zone,Meter,Electricity:Zone:OFFICE_OPEN_77 [J]
Zone,Meter,InteriorLights:Electricity:Zone:OFFICE_OPEN_77 [J]
Zone,Meter,General:InteriorLights:Electricity:Zone:OFFICE_OPEN_77 [J]
Zone,Meter,Electricity:Zone:OFFICE_PRIVATE_77 [J]
Zone,Meter,InteriorLights:Electricity:Zone:OFFICE_PRIVATE_77 [J]
Zone,Meter,General:InteriorLights:Electricity:Zone:OFFICE_PRIVATE_77 [J]
Zone,Meter,Electricity:Zone:OFFICE_PRIVATE_78 [J]
Zone,Meter,InteriorLights:Electricity:Zone:OFFICE_PRIVATE_78 [J]
Zone,Meter,General:InteriorLights:Electricity:Zone:OFFICE_PRIVATE_78 [J]
Zone,Meter,Electricity:Zone:CONFERENCE_79 [J]
Zone,Meter,InteriorLights:Electricity:Zone:CONFERENCE_79 [J]
Zone,Meter,General:InteriorLights:Electricity:Zone:CONFERENCE_79 [J]
Zone,Meter,Electricity:Zone:MECHANICAL_79 [J]
Zone,Meter,InteriorLights:Electricity:Zone:MECHANICAL_79 [J]
Zone,Meter,General:InteriorLights:Electricity:Zone:MECHANICAL_79 [J]
Zone,Meter,Electricity:Zone:OFFICE_PRIVATE_79 [J]
Zone,Meter,InteriorLights:Electricity:Zone:OFFICE_PRIVATE_79 [J]
Zone,Meter,General:InteriorLights:Electricity:Zone:OFFICE_PRIVATE_79 [J]
Zone,Meter,Electricity:Zone:LOBBY_80 [J]
Zone,Meter,InteriorLights:Electricity:Zone:LOBBY_80 [J]
Zone,Meter,General:InteriorLights:Electricity:Zone:LOBBY_80 [J]
Zone,Meter,Electricity:Zone:MECHANICAL_80 [J]
Zone,Meter,InteriorLights:Electricity:Zone:MECHANICAL_80 [J]
Zone,Meter,General:InteriorLights:Electricity:Zone:MECHANICAL_80 [J]
Zone,Meter,Electricity:Zone:MECHANICAL_81 [J]
Zone,Meter,InteriorLights:Electricity:Zone:MECHANICAL_81 [J]
Zone,Meter,General:InteriorLights:Electricity:Zone:MECHANICAL_81 [J]
Zone,Meter,Electricity:Zone:STORAGE_81 [J]
Zone,Meter,InteriorLights:Electricity:Zone:STORAGE_81 [J]
Zone,Meter,General:InteriorLights:Electricity:Zone:STORAGE_81 [J]
Zone,Meter,Electricity:Zone:CONFERENCE_82 [J]
Zone,Meter,InteriorLights:Electricity:Zone:CONFERENCE_82 [J]
Zone,Meter,General:InteriorLights:Electricity:Zone:CONFERENCE_82 [J]
Zone,Meter,Electricity:Zone:MECHANICAL_82 [J]
Zone,Meter,InteriorLights:Electricity:Zone:MECHANICAL_82 [J]
Zone,Meter,General:InteriorLights:Electricity:Zone:MECHANICAL_82 [J]
Zone,Meter,Electricity:Zone:STORAGE_82 [J]
Zone,Meter,InteriorLights:Electricity:Zone:STORAGE_82 [J]
Zone,Meter,General:InteriorLights:Electricity:Zone:STORAGE_82 [J]
Zone,Meter,Electricity:Zone:LOBBY_83 [J]
Zone,Meter,InteriorLights:Electricity:Zone:LOBBY_83 [J]
Zone,Meter,General:InteriorLights:Electricity:Zone:LOBBY_83 [J]
Zone,Meter,Electricity:Zone:BREAK_ROOM_84 [J]
Zone,Meter,InteriorLights:Electricity:Zone:BREAK_ROOM_84 [J]
Zone,Meter,General:InteriorLights:Electricity:Zone:BREAK_ROOM_84 [J]
Zone,Meter,Electricity:Zone:OFFICE_PRIVATE_84 [J]
Zone,Meter,InteriorLights:Electricity:Zone:OFFICE_PRIVATE_84 [J]
Zone,Meter,General:InteriorLights:Electricity:Zone:OFFICE_PRIVATE_84 [J]
Zone,Meter,Electricity:Zone:STORAGE_84 [J]
Zone,Meter,InteriorLights:Electricity:Zone:STORAGE_84 [J]
Zone,Meter,General:InteriorLights:Electricity:Zone:STORAGE_84 [J]
Zone,Meter,Electricity:Zone:LOBBY_85 [J]
Zone,Meter,InteriorLights:Electricity:Zone:LOBBY_85 [J]
Zone,Meter,General:InteriorLights:Electricity:Zone:LOBBY_85 [J]
Zone,Meter,Electricity:Zone:BREAK_ROOM_85 [J]
Zone,Meter,InteriorLights:Electricity:Zone:BREAK_ROOM_85 [J]
Zone,Meter,General:InteriorLights:Electricity:Zone:BREAK_ROOM_85 [J]
Zone,Meter,Electricity:Zone:MECHANICAL_85 [J]
Zone,Meter,InteriorLights:Electricity:Zone:MECHANICAL_85 [J]
Zone,Meter,General:InteriorLights:Electricity:Zone:MECHANICAL_85 [J]
Zone,Meter,Electricity:Zone:OFFICE_PRIVATE_85 [J]
Zone,Meter,InteriorLights:Electricity:Zone:OFFICE_PRIVATE_85 [J]
Zone,Meter,General:InteriorLights:Electricity:Zone:OFFICE_PRIVATE_85 [J]
Zone,Meter,Electricity:Zone:STORAGE_85 [J]
Zone,Meter,InteriorLights:Electricity:Zone:STORAGE_85 [J]
Zone,Meter,General:InteriorLights:Electricity:Zone:STORAGE_85 [J]
Zone,Meter,Electricity:Zone:LOBBY_86 [J]
Zone,Meter,InteriorLights:Electricity:Zone:LOBBY_86 [J]
Zone,Meter,General:InteriorLights:Electricity:Zone:LOBBY_86 [J]
Zone,Meter,Electricity:Zone:MECHANICAL_86 [J]
Zone,Meter,InteriorLights:Electricity:Zone:MECHANICAL_86 [J]
Zone,Meter,General:InteriorLights:Electricity:Zone:MECHANICAL_86 [J]
Zone,Meter,Electricity:Zone:OFFICE_OPEN_86 [J]
Zone,Meter,InteriorLights:Electricity:Zone:OFFICE_OPEN_86 [J]
Zone,Meter,General:InteriorLights:Electricity:Zone:OFFICE_OPEN_86 [J]
Zone,Meter,Electricity:Zone:OFFICE_PRIVATE_86 [J]
Zone,Meter,InteriorLights:Electricity:Zone:OFFICE_PRIVATE_86 [J]
Zone,Meter,General:InteriorLights:Electricity:Zone:OFFICE_PRIVATE_86 [J]
Zone,Meter,Electricity:Zone:STORAGE_86 [J]
Zone,Meter,InteriorLights:Electricity:Zone:STORAGE_86 [J]
Zone,Meter,General:InteriorLights:Electricity:Zone:STORAGE_86 [J]
Zone,Meter,Electricity:Zone:CONFERENCE_87 [J]
Zone,Meter,InteriorLights:Electricity:Zone:CONFERENCE_87 [J]
Zone,Meter,General:InteriorLights:Electricity:Zone:CONFERENCE_87 [J]
Zone,Meter,Electricity:Zone:MECHANICAL_87 [J]
Zone,Meter,InteriorLights:Electricity:Zone:MECHANICAL_87 [J]
Zone,Meter,General:InteriorLights:Electricity:Zone:MECHANICAL_87 [J]
Zone,Meter,Electricity:Zone:OFFICE_OPEN_87 [J]
Zone,Meter,InteriorLights:Electricity:Zone:OFFICE_OPEN_87 [J]
Zone,Meter,General:InteriorLights:Electricity:Zone:OFFICE_OPEN_87 [J]
Zone,Meter,Electricity:Zone:LOBBY_88 [J]
Zone,Meter,InteriorLights:Electricity:Zone:LOBBY_88 [J]
Zone,Meter,General:InteriorLights:Electricity:Zone:LOBBY_88 [J]
Zone,Meter,Electricity:Zone:CONFERENCE_88 [J]
Zone,Meter,InteriorLights:Electricity:Zone:CONFERENCE_88 [J]
Zone,Meter,General:InteriorLights:Electricity:Zone:CONFERENCE_88 [J]
Zone,Meter,Electricity:Zone:OFFICE_PRIVATE_88 [J]
Zone,Meter,InteriorLights:Electricity:Zone:OFFICE_PRIVATE_88 [J]
Zone,Meter,General:InteriorLights:Electricity:Zone:OFFICE_PRIVATE_88 [J]
Zone,Meter,Electricity:Zone:STORAGE_88 [J]
Zone,Meter,InteriorLights:Electricity:Zone:STORAGE_88 [J]
Zone,Meter,General:InteriorLights:Electricity:Zone:STORAGE_88 [J]
Zone,Meter,Electricity:Zone:CONFERENCE_89 [J]
Zone,Meter,InteriorLights:Electricity:Zone:CONFERENCE_89 [J]
Zone,Meter,General:InteriorLights:Electricity:Zone:CONFERENCE_89 [J]
Zone,Meter,Electricity:Zone:BREAK_ROOM_89 [J]
Zone,Meter,InteriorLights:Electricity:Zone:BREAK_ROOM_89 [J]
Zone,Meter,General:InteriorLights:Electricity:Zone:BREAK_ROOM_89 [J]
Zone,Meter,Electricity:Zone:MECHANICAL_89 [J]
Zone,Meter,InteriorLights:Electricity:Zone:MECHANICAL_89 [J]
Zone,Meter,General:InteriorLights:Electricity:Zone:MECHANICAL_89 [J]
Zone,Meter,Electricity:Zone:OFFICE_OPEN_89 [J]
Zone,Meter,InteriorLights:Electricity:Zone:OFFICE_OPEN_89 [J]
Zone,Meter,General:InteriorLights:Electricity:Zone:OFFICE_OPEN_89 [J]
Zone,Meter,Electricity:Zone:OFFICE_PRIVATE_89 [J]
Zone,Meter,InteriorLights:Electricity:Zone:OFFICE_PRIVATE_89 [J]
Zone,Meter,General:InteriorLights:Electricity:Zone:OFFICE_PRIVATE_89 [J]
Zone,Meter,Electricity:Zone:STORAGE_89 [J]
Zone,Meter,InteriorLights:Electricity:Zone:STORAGE_89 [J]
Zone,Meter,General:InteriorLights:Electricity:Zone:STORAGE_89 [J]
Zone,Meter,Electricity:Zone:CONFERENCE_90 [J]
Zone,Meter,InteriorLights:Electricity:Zone:CONFERENCE_90 [J]
Zone,Meter,General:InteriorLights:Electricity:Zone:CONFERENCE_90 [J]
Zone,Meter,Electricity:Zone:OFFICE_OPEN_90 [J]
Zone,Meter,InteriorLights:Electricity:Zone:OFFICE_OPEN_90 [J]
Zone,Meter,General:InteriorLights:Electricity:Zone:OFFICE_OPEN_90 [J]
Zone,Meter,Electricity:Zone:STORAGE_90 [J]
Zone,Meter,InteriorLights:Electricity:Zone:STORAGE_90 [J]
Zone,Meter,General:InteriorLights:Electricity:Zone:STORAGE_90 [J]
Zone,Meter,Electricity:Zone:LOBBY_91 [J]
Zone,Meter,InteriorLights:Electricity:Zone:LOBBY_91 [J]
Zone,Meter,General:InteriorLights:Electricity:Zone:LOBBY_91 [J]
Zone,Meter,Electricity:Zone:CONFERENCE_91 [J]
Zone,Meter,InteriorLights:Electricity:Zone:CONFERENCE_91 [J]
Zone,Meter,General:InteriorLights:Electricity:Zone:CONFERENCE_91 [J]
Zone,Meter,Electricity:Zone:MECHANICAL_91 [J]
Zone,Meter,InteriorLights:Electricity:Zone:MECHANICAL_91 [J]
Zone,Meter,General:InteriorLights:Electricity:Zone:MECHANICAL_91 [J]
Zone,Meter,Electricity:Zone:STORAGE_91 [J]
Zone,Meter,InteriorLights:Electricity:Zone:STORAGE_91 [J]
Zone,Meter,General:InteriorLights:Electricity:Zone:STORAGE_91 [J]
Zone,Meter,Electricity:Zone:LOBBY_92 [J]
Zone,Meter,InteriorLights:Electricity:Zone:LOBBY_92 [J]
Zone,Meter,General:InteriorLights:Electricity:Zone:LOBBY_92 [J]
Zone,Meter,Electricity:Zone:CONFERENCE_92 [J]
Zone,Meter,InteriorLights:Electricity:Zone:CONFERENCE_92 [J]
Zone,Meter,General:InteriorLights:Electricity:Zone:CONFERENCE_92 [J]
Zone,Meter,Electricity:Zone:OFFICE_PRIVATE_92 [J]
Zone,Meter,InteriorLights:Electricity:Zone:OFFICE_PRIVATE_92 [J]
Zone,Meter,General:InteriorLights:Electricity:Zone:OFFICE_PRIVATE_92 [J]
Zone,Meter,Electricity:Zone:MECHANICAL_93 [J]
Zone,Meter,InteriorLights:Electricity:Zone:MECHANICAL_93 [J]
Zone,Meter,General:InteriorLights:Electricity:Zone:MECHANICAL_93 [J]
Zone,Meter,Electricity:Zone:OFFICE_PRIVATE_93 [J]
Zone,Meter,InteriorLights:Electricity:Zone:OFFICE_PRIVATE_93 [J]
Zone,Meter,General:InteriorLights:Electricity:Zone:OFFICE_PRIVATE_93 [J]
Zone,Meter,Electricity:Zone:LOBBY_94 [J]
Zone,Meter,InteriorLights:Electricity:Zone:LOBBY_94 [J]
Zone,Meter,General:InteriorLights:Electricity:Zone:LOBBY_94 [J]
Zone,Meter,Electricity:Zone:BREAK_ROOM_94 [J]
Zone,Meter,InteriorLights:Electricity:Zone:BREAK_ROOM_94 [J]
Zone,Meter,General:InteriorLights:Electricity:Zone:BREAK_ROOM_94 [J]
Zone,Meter,Electricity:Zone:OFFICE_OPEN_94 [J]
Zone,Meter,InteriorLights:Electricity:Zone:OFFICE_OPEN_94 [J]
Zone,Meter,General:InteriorLights:Electricity:Zone:OFFICE_OPEN_94 [J]
Zone,Meter,Electricity:Zone:OFFICE_PRIVATE_94 [J]
Zone,Meter,InteriorLights:Electricity:Zone:OFFICE_PRIVATE_94 [J]
Zone,Meter,General:InteriorLights:Electricity:Zone:OFFICE_PRIVATE_94 [J]
Zone,Meter,Electricity:Zone:LOBBY_95 [J]
Zone,Meter,InteriorLights:Electricity:Zone:LOBBY_95 [J]
Zone,Meter,General:InteriorLights:Electricity:Zone:LOBBY_95 [J]
Zone,Meter,Electricity:Zone:CONFERENCE_95 [J]
Zone,Meter,InteriorLights:Electricity:Zone:CONFERENCE_95 [J]
Zone,Meter,General:InteriorLights:Electricity:Zone:CONFERENCE_95 [J]
Zone,Meter,Electricity:Zone:BREAK_ROOM_95 [J]
Zone,Meter,InteriorLights:Electricity:Zone:BREAK_ROOM_95 [J]
Zone,Meter,General:InteriorLights:Electricity:Zone:BREAK_ROOM_95 [J]
Zone,Meter,Electricity:Zone:MECHANICAL_95 [J]
Zone,Meter,InteriorLights:Electricity:Zone:MECHANICAL_95 [J]
Zone,Meter,General:InteriorLights:Electricity:Zone:MECHANICAL_95 [J]
Zone,Meter,Electricity:Zone:OFFICE_OPEN_95 [J]
Zone,Meter,InteriorLights:Electricity:Zone:OFFICE_OPEN_95 [J]
Zone,Meter,General:InteriorLights:Electricity:Zone:OFFICE_OPEN_95 [J]
Zone,Meter,Electricity:Zone:STORAGE_95 [J]
Zone,Meter,InteriorLights:Electricity:Zone:STORAGE_95 [J]
Zone,Meter,General:InteriorLights:Electricity:Zone:STORAGE_95 [J]
Zone,Meter,Electricity:Zone:LOBBY_96 [J]
Zone,Meter,InteriorLights:Electricity:Zone:LOBBY_96 [J]
Zone,Meter,General:InteriorLights:Electricity:Zone:LOBBY_96 [J]
Zone,Meter,Electricity:Zone:BREAK_ROOM_96 [J]
Zone,Meter,InteriorLights:Electricity:Zone:BREAK_ROOM_96 [J]
Zone,Meter,General:InteriorLights:Electricity:Zone:BREAK_ROOM_96 [J]
Zone,Meter,Electricity:Zone:MECHANICAL_96 [J]
Zone,Meter,InteriorLights:Electricity:Zone:MECHANICAL_96 [J]
Zone,Meter,General:InteriorLights:Electricity:Zone:MECHANICAL_96 [J]
Zone,Meter,Electricity:Zone:OFFICE_PRIVATE_96 [J]
Zone,Meter,InteriorLights:Electricity:Zone:OFFICE_PRIVATE_96 [J]
Zone,Meter,General:InteriorLights:Electricity:Zone:OFFICE_PRIVATE_96 [J]
Zone,Meter,Electricity:Zone:BREAK_ROOM_97 [J]
Zone,Meter,InteriorLights:Electricity:Zone:BREAK_ROOM_97 [J]
Zone,Meter,General:InteriorLights:Electricity:Zone:BREAK_ROOM_97 [J]
Zone,Meter,Electricity:Zone:OFFICE_PRIVATE_97 [J]
Zone,Meter,InteriorLights:Electricity:Zone:OFFICE_PRIVATE_97 [J]
Zone,Meter,General:InteriorLights:Electricity:Zone:OFFICE_PRIVATE_97 [J]
Zone,Meter,Electricity:Zone:STORAGE_97 [J]
Zone,Meter,InteriorLights:Electricity:Zone:STORAGE_97 [J]
Zone,Meter,General:InteriorLights:Electricity:Zone:STORAGE_97 [J]
Zone,Meter,InteriorEquipment:Electricity [J]
Zone,Meter,InteriorEquipment:Electricity:Zone:CONFERENCE_0 [J]
Zone,Meter,InteriorEquipment:Electricity:SpaceType:GENERAL [J]
Zone,Meter,General:InteriorEquipment:Electricity [J]
Zone,Meter,General:InteriorEquipment:Electricity:Zone:CONFERENCE_0 [J]
Zone,Meter,General:InteriorEquipment:Electricity:SpaceType:GENERAL [J]
Zone,Meter,InteriorEquipment:Electricity:Zone:BREAK_ROOM_0 [J]
Zone,Meter,General:InteriorEquipment:Electricity:Zone:BREAK_ROOM_0 [J]
Zone,Meter,InteriorEquipment:Electricity:Zone:STORAGE_0 [J]
Zone,Meter,General:InteriorEquipment:Electricity:Zone:STORAGE_0 [J]
Zone,Meter,InteriorEquipment:Electricity:Zone:LOBBY_1 [J]
Zone,Meter,General:InteriorEquipment:Electricity:Zone:LOBBY_1 [J]
Zone,Meter,InteriorEquipment:Electricity:Zone:BREAK_ROOM_1 [J]
Zone,Meter,General:InteriorEquipment:Electricity:Zone:BREAK_ROOM_1 [J]
Zone,Meter,InteriorEquipment:Electricity:Zone:OFFICE_OPEN_1 [J]
Zone,Meter,General:InteriorEquipment:Electricity:Zone:OFFICE_OPEN_1 [J]
Zone,Meter,InteriorEquipment:Electricity:Zone:OFFICE_PRIVATE_1 [J]
Zone,Meter,General:InteriorEquipment:Electricity:Zone:OFFICE_PRIVATE_1 [J]
Zone,Meter,InteriorEquipment:Electricity:Zone:STORAGE_1 [J]
Zone,Meter,General:InteriorEquipment:Electricity:Zone:STORAGE_1 [J]
Zone,Meter,InteriorEquipment:Electricity:Zone:STORAGE_2 [J]
Zone,Meter,General:InteriorEquipment:Electricity:Zone:STORAGE_2 [J]
Zone,Meter,InteriorEquipment:Electricity:Zone:LOBBY_3 [J]
Zone,Meter,General:InteriorEquipment:Electricity:Zone:LOBBY_3 [J]
Zone,Meter,InteriorEquipment:Electricity:Zone:BREAK_ROOM_3 [J]
Zone,Meter,General:InteriorEquipment:Electricity:Zone:BREAK_ROOM_3 [J]
Zone,Meter,InteriorEquipment:Electricity:Zone:MECHANICAL_3 [J]
Zone,Meter,General:InteriorEquipment:Electricity:Zone:MECHANICAL_3 [J]
Zone,Meter,InteriorEquipment:Electricity:Zone:OFFICE_PRIVATE_3 [J]
Zone,Meter,General:InteriorEquipment:Electricity:Zone:OFFICE_PRIVATE_3 [J]
Zone,Meter,InteriorEquipment:Electricity:Zone:LOBBY_4 [J]
Zone,Meter,General:InteriorEquipment:Electricity:Zone:LOBBY_4 [J]
Zone,Meter,InteriorEquipment:Electricity:Zone:BREAK_ROOM_4 [J]
Zone,Meter,General:InteriorEquipment:Electricity:Zone:BREAK_ROOM_4 [J]
Zone,Meter,InteriorEquipment:Electricity:Zone:OFFICE_OPEN_4 [J]
Zone,Meter,General:InteriorEquipment:Electricity:Zone:OFFICE_OPEN_4 [J]
Zone,Meter,InteriorEquipment:Electricity:Zone:OFFICE_PRIVATE_4 [J]
Zone,Meter,General:InteriorEquipment:Electricity:Zone:OFFICE_PRIVATE_4 [J]
Zone,Meter,InteriorEquipment:Electricity:Zone:STORAGE_4 [J]
Zone,Meter,General:InteriorEquipment:Electricity:Zone:STORAGE_4 [J]
Zone,Meter,InteriorEquipment:Electricity:Zone:LOBBY_5 [J]
Zone,Meter,General:InteriorEquipment:Electricity:Zone:LOBBY_5 [J]
Zone,Meter,InteriorEquipment:Electricity:Zone:MECHANICAL_5 [J]
Zone,Meter,General:InteriorEquipment:Electricity:Zone:MECHANICAL_5 [J]
Zone,Meter,InteriorEquipment:Electricity:Zone:OFFICE_OPEN_5 [J]
Zone,Meter,General:InteriorEquipment:Electricity:Zone:OFFICE_OPEN_5 [J]
Zone,Meter,InteriorEquipment:Electricity:Zone:BREAK_ROOM_6 [J]
Zone,Meter,General:InteriorEquipment:Electricity:Zone:BREAK_ROOM_6 [J]
Zone,Meter,InteriorEquipment:Electricity:Zone:STORAGE_6 [J]
Zone,Meter,General:InteriorEquipment:Electricity:Zone:STORAGE_6 [J]
Zone,Meter,InteriorEquipment:Electricity:Zone:LOBBY_7 [J]
Zone,Meter,General:InteriorEquipment:Electricity:Zone:LOBBY_7 [J]
Zone,Meter,InteriorEquipment:Electricity:Zone:CONFERENCE_7 [J]
Zone,Meter,General:InteriorEquipment:Electricity:Zone:CONFERENCE_7 [J]
Zone,Meter,InteriorEquipment:Electricity:Zone:MECHANICAL_7 [J]
Zone,Meter,General:InteriorEquipment:Electricity:Zone:MECHANICAL_7 [J]
Zone,Meter,InteriorEquipment:Electricity:Zone:OFFICE_PRIVATE_7 [J]
Zone,Meter,General:InteriorEquipment:Electricity:Zone:OFFICE_PRIVATE_7 [J]
Zone,Meter,InteriorEquipment:Electricity:Zone:STORAGE_7 [J]
Zone,Meter,General:InteriorEquipment:Electricity:Zone:STORAGE_7 [J]
Zone,Meter,InteriorEquipment:Electricity:Zone:LOBBY_8 [J]
Zone,Meter,General:InteriorEquipment:Electricity:Zone:LOBBY_8 [J]
Zone,Meter,InteriorEquipment:Electricity:Zone:BREAK_ROOM_8 [J]
Zone,Meter,General:InteriorEquipment:Electricity:Zone:BREAK_ROOM_8 [J]
Zone,Meter,InteriorEquipment:Electricity:Zone:MECHANICAL_8 [J]
Zone,Meter,General:InteriorEquipment:Electricity:Zone:MECHANICAL_8 [J]
Zone,Meter,InteriorEquipment:Electricity:Zone:OFFICE_OPEN_8 [J]
Zone,Meter,General:InteriorEquipment:Electricity:Zone:OFFICE_OPEN_8 [J]
Zone,Meter,InteriorEquipment:Electricity:Zone:BREAK_ROOM_9 [J]
Zone,Meter,General:InteriorEquipment:Electricity:Zone:BREAK_ROOM_9 [J]
Zone,Meter,InteriorEquipment:Electricity:Zone:OFFICE_PRIVATE_9 [J]
Zone,Meter,General:InteriorEquipment:Electricity:Zone:OFFICE_PRIVATE_9 [J]
Zone,Meter,InteriorEquipment:Electricity:Zone:BREAK_ROOM_10 [J]
Zone,Meter,General:InteriorEquipment:Electricity:Zone:BREAK_ROOM_10 [J]
Zone,Meter,InteriorEquipment:Electricity:Zone:MECHANICAL_10 [J]
Zone,Meter,General:InteriorEquipment:Electricity:Zone:MECHANICAL_10 [J]
Zone,Meter,InteriorEquipment:Electricity:Zone:LOBBY_11 [J]
Zone,Meter,General:InteriorEquipment:Electricity:Zone:LOBBY_11 [J]
Zone,Meter,InteriorEquipment:Electricity:Zone:CONFERENCE_11 [J]
Zone,Meter,General:InteriorEquipment:Electricity:Zone:CONFERENCE_11 [J]
Zone,Meter,InteriorEquipment:Electricity:Zone:BREAK_ROOM_11 [J]
Zone,Meter,General:InteriorEquipment:Electricity:Zone:BREAK_ROOM_11 [J]
Zone,Meter,InteriorEquipment:Electricity:Zone:OFFICE_OPEN_11 [J]
Zone,Meter,General:InteriorEquipment:Electricity:Zone:OFFICE_OPEN_11 [J]
Zone,Meter,InteriorEquipment:Electricity:Zone:LOBBY_12 [J]
Zone,Meter,General:InteriorEquipment:Electricity:Zone:LOBBY_12 [J]
Zone,Meter,InteriorEquipment:Electricity:Zone:OFFICE_PRIVATE_12 [J]
Zone,Meter,General:InteriorEquipment:Electricity:Zone:OFFICE_PRIVATE_12 [J]
Zone,Meter,InteriorEquipment:Electricity:Zone:STORAGE_12 [J]
Zone,Meter,General:InteriorEquipment:Electricity:Zone:STORAGE_12 [J]
Zone,Meter,InteriorEquipment:Electricity:Zone:LOBBY_13 [J]
Zone,Meter,General:InteriorEquipment:Electricity:Zone:LOBBY_13 [J]
Zone,Meter,InteriorEquipment:Electricity:Zone:CONFERENCE_13 [J]
Zone,Meter,General:InteriorEquipment:Electricity:Zone:CONFERENCE_13 [J]
Zone,Meter,InteriorEquipment:Electricity:Zone:BREAK_ROOM_13 [J]
Zone,Meter,General:InteriorEquipment:Electricity:Zone:BREAK_ROOM_13 [J]
Zone,Meter,InteriorEquipment:Electricity:Zone:MECHANICAL_13 [J]
Zone,Meter,General:InteriorEquipment:Electricity:Zone:MECHANICAL_13 [J]
Zone,Meter,InteriorEquipment:Electricity:Zone:OFFICE_PRIVATE_13 [J]
Zone,Meter,General:InteriorEquipment:Electricity:Zone:OFFICE_PRIVATE_13 [J]
Zone,Meter,InteriorEquipment:Electricity:Zone:STORAGE_13 [J]
Zone,Meter,General:InteriorEquipment:Electricity:Zone:STORAGE_13 [J]
Zone,Meter,InteriorEquipment:Electricity:Zone:LOBBY_14 [J]
Zone,Meter,General:InteriorEquipment:Electricity:Zone:LOBBY_14 [J]
Zone,Meter,InteriorEquipment:Electricity:Zone:LOBBY_16 [J]
Zone,Meter,General:InteriorEquipment:Electricity:Zone:LOBBY_16 [J]
Zone,Meter,InteriorEquipment:Electricity:Zone:CONFERENCE_16 [J]
Zone,Meter,General:InteriorEquipment:Electricity:Zone:CONFERENCE_16 [J]
Zone,Meter,InteriorEquipment:Electricity:Zone:MECHANICAL_16 [J]
Zone,Meter,General:InteriorEquipment:Electricity:Zone:MECHANICAL_16 [J]
Zone,Meter,InteriorEquipment:Electricity:Zone:OFFICE_OPEN_16 [J]
Zone,Meter,General:InteriorEquipment:Electricity:Zone:OFFICE_OPEN_16 [J]
Zone,Meter,InteriorEquipment:Electricity:Zone:OFFICE_PRIVATE_16 [J]
Zone,Meter,General:InteriorEquipment:Electricity:Zone:OFFICE_PRIVATE_16 [J]
Zone,Meter,InteriorEquipment:Electricity:Zone:OFFICE_OPEN_17 [J]
Zone,Meter,General:InteriorEquipment:Electricity:Zone:OFFICE_OPEN_17 [J]
Zone,Meter,InteriorEquipment:Electricity:Zone:LOBBY_18 [J]
Zone,Meter,General:InteriorEquipment:Electricity:Zone:LOBBY_18 [J]
Zone,Meter,InteriorEquipment:Electricity:Zone:CONFERENCE_18 [J]
Zone,Meter,General:InteriorEquipment:Electricity:Zone:CONFERENCE_18 [J]
Zone,Meter,InteriorEquipment:Electricity:Zone:BREAK_ROOM_18 [J]
Zone,Meter,General:InteriorEquipment:Electricity:Zone:BREAK_ROOM_18 [J]
Zone,Meter,InteriorEquipment:Electricity:Zone:MECHANICAL_18 [J]
Zone,Meter,General:InteriorEquipment:Electricity:Zone:MECHANICAL_18 [J]
Zone,Meter,InteriorEquipment:Electricity:Zone:LOBBY_19 [J]
Zone,Meter,General:InteriorEquipment:Electricity:Zone:LOBBY_19 [J]
Zone,Meter,InteriorEquipment:Electricity:Zone:BREAK_ROOM_19 [J]
Zone,Meter,General:InteriorEquipment:Electricity:Zone:BREAK_ROOM_19 [J]
Zone,Meter,InteriorEquipment:Electricity:Zone:OFFICE_PRIVATE_19 [J]
Zone,Meter,General:InteriorEquipment:Electricity:Zone:OFFICE_PRIVATE_19 [J]
Zone,Meter,InteriorEquipment:Electricity:Zone:STORAGE_19 [J]
Zone,Meter,General:InteriorEquipment:Electricity:Zone:STORAGE_19 [J]
Zone,Meter,InteriorEquipment:Electricity:Zone:BREAK_ROOM_21 [J]
Zone,Meter,General:InteriorEquipment:Electricity:Zone:BREAK_ROOM_21 [J]
Zone,Meter,InteriorEquipment:Electricity:Zone:OFFICE_PRIVATE_21 [J]
Zone,Meter,General:InteriorEquipment:Electricity:Zone:OFFICE_PRIVATE_21 [J]
Zone,Meter,InteriorEquipment:Electricity:Zone:STORAGE_21 [J]
Zone,Meter,General:InteriorEquipment:Electricity:Zone:STORAGE_21 [J]
Zone,Meter,InteriorEquipment:Electricity:Zone:BREAK_ROOM_22 [J]
Zone,Meter,General:InteriorEquipment:Electricity:Zone:BREAK_ROOM_22 [J]
Zone,Meter,InteriorEquipment:Electricity:Zone:STORAGE_22 [J]
Zone,Meter,General:InteriorEquipment:Electricity:Zone:STORAGE_22 [J]
Zone,Meter,InteriorEquipment:Electricity:Zone:LOBBY_23 [J]
Zone,Meter,General:InteriorEquipment:Electricity:Zone:LOBBY_23 [J]
Zone,Meter,InteriorEquipment:Electricity:Zone:CONFERENCE_23 [J]
Zone,Meter,General:InteriorEquipment:Electricity:Zone:CONFERENCE_23 [J]
Zone,Meter,InteriorEquipment:Electricity:Zone:OFFICE_OPEN_23 [J]
Zone,Meter,General:InteriorEquipment:Electricity:Zone:OFFICE_OPEN_23 [J]
Zone,Meter,InteriorEquipment:Electricity:Zone:OFFICE_PRIVATE_23 [J]
Zone,Meter,General:InteriorEquipment:Electricity:Zone:OFFICE_PRIVATE_23 [J]
Zone,Meter,InteriorEquipment:Electricity:Zone:LOBBY_24 [J]
Zone,Meter,General:InteriorEquipment:Electricity:Zone:LOBBY_24 [J]
Zone,Meter,InteriorEquipment:Electricity:Zone:CONFERENCE_24 [J]
Zone,Meter,General:InteriorEquipment:Electricity:Zone:CONFERENCE_24 [J]
Zone,Meter,InteriorEquipment:Electricity:Zone:BREAK_ROOM_24 [J]
Zone,Meter,General:InteriorEquipment:Electricity:Zone:BREAK_ROOM_24 [J]
Zone,Meter,InteriorEquipment:Electricity:Zone:OFFICE_OPEN_24 [J]
Zone,Meter,General:InteriorEquipment:Electricity:Zone:OFFICE_OPEN_24 [J]
Zone,Meter,InteriorEquipment:Electricity:Zone:OFFICE_PRIVATE_24 [J]
Zone,Meter,General:InteriorEquipment:Electricity:Zone:OFFICE_PRIVATE_24 [J]
Zone,Meter,InteriorEquipment:Electricity:Zone:STORAGE_24 [J]
Zone,Meter,General:InteriorEquipment:Electricity:Zone:STORAGE_24 [J]
Zone,Meter,InteriorEquipment:Electricity:Zone:BREAK_ROOM_25 [J]
Zone,Meter,General:InteriorEquipment:Electricity:Zone:BREAK_ROOM_25 [J]
Zone,Meter,InteriorEquipment:Electricity:Zone:MECHANICAL_25 [J]
Zone,Meter,General:InteriorEquipment:Electricity:Zone:MECHANICAL_25 [J]
Zone,Meter,InteriorEquipment:Electricity:Zone:OFFICE_PRIVATE_25 [J]
Zone,Meter,General:InteriorEquipment:Electricity:Zone:OFFICE_PRIVATE_25 [J]
Zone,Meter,InteriorEquipment:Electricity:Zone:LOBBY_26 [J]
Zone,Meter,General:InteriorEquipment:Electricity:Zone:LOBBY_26 [J]
Zone,Meter,InteriorEquipment:Electricity:Zone:BREAK_ROOM_26 [J]
Zone,Meter,General:InteriorEquipment:Electricity:Zone:BREAK_ROOM_26 [J]
Zone,Meter,InteriorEquipment:Electricity:Zone:OFFICE_OPEN_26 [J]
Zone,Meter,General:InteriorEquipment:Electricity:Zone:OFFICE_OPEN_26 [J]
Zone,Meter,InteriorEquipment:Electricity:Zone:MECHANICAL_27 [J]
Zone,Meter,General:InteriorEquipment:Electricity:Zone:MECHANICAL_27 [J]
Zone,Meter,InteriorEquipment:Electricity:Zone:OFFICE_PRIVATE_27 [J]
Zone,Meter,General:InteriorEquipment:Electricity:Zone:OFFICE_PRIVATE_27 [J]
Zone,Meter,InteriorEquipment:Electricity:Zone:STORAGE_27 [J]
Zone,Meter,General:InteriorEquipment:Electricity:Zone:STORAGE_27 [J]
Zone,Meter,InteriorEquipment:Electricity:Zone:CONFERENCE_28 [J]
Zone,Meter,General:InteriorEquipment:Electricity:Zone:CONFERENCE_28 [J]
Zone,Meter,InteriorEquipment:Electricity:Zone:MECHANICAL_28 [J]
Zone,Meter,General:InteriorEquipment:Electricity:Zone:MECHANICAL_28 [J]
Zone,Meter,InteriorEquipment:Electricity:Zone:OFFICE_OPEN_28 [J]
Zone,Meter,General:InteriorEquipment:Electricity:Zone:OFFICE_OPEN_28 [J]
Zone,Meter,InteriorEquipment:Electricity:Zone:OFFICE_PRIVATE_28 [J]
Zone,Meter,General:InteriorEquipment:Electricity:Zone:OFFICE_PRIVATE_28 [J]
Zone,Meter,InteriorEquipment:Electricity:Zone:STORAGE_28 [J]
Zone,Meter,General:InteriorEquipment:Electricity:Zone:STORAGE_28 [J]
Zone,Meter,InteriorEquipment:Electricity:Zone:BREAK_ROOM_29 [J]
Zone,Meter,General:InteriorEquipment:Electricity:Zone:BREAK_ROOM_29 [J]
Zone,Meter,InteriorEquipment:Electricity:Zone:MECHANICAL_29 [J]
Zone,Meter,General:InteriorEquipment:Electricity:Zone:MECHANICAL_29 [J]
Zone,Meter,InteriorEquipment:Electricity:Zone:OFFICE_OPEN_29 [J]
Zone,Meter,General:InteriorEquipment:Electricity:Zone:OFFICE_OPEN_29 [J]
Zone,Meter,InteriorEquipment:Electricity:Zone:OFFICE_PRIVATE_29 [J]
Zone,Meter,General:InteriorEquipment:Electricity:Zone:OFFICE_PRIVATE_29 [J]
Zone,Meter,InteriorEquipment:Electricity:Zone:STORAGE_29 [J]
Zone,Meter,General:InteriorEquipment:Electricity:Zone:STORAGE_29 [J]
Zone,Meter,InteriorEquipment:Electricity:Zone:CONFERENCE_30 [J]
Zone,Meter,General:InteriorEquipment:Electricity:Zone:CONFERENCE_30 [J]
Zone,Meter,InteriorEquipment:Electricity:Zone:OFFICE_PRIVATE_30 [J]
Zone,Meter,General:InteriorEquipment:Electricity:Zone:OFFICE_PRIVATE_30 [J]
Zone,Meter,InteriorEquipment:Electricity:Zone:OFFICE_OPEN_31 [J]
Zone,Meter,General:InteriorEquipment:Electricity:Zone:OFFICE_OPEN_31 [J]
Zone,Meter,InteriorEquipment:Electricity:Zone:LOBBY_32 [J]
Zone,Meter,General:InteriorEquipment:Electricity:Zone:LOBBY_32 [J]
Zone,Meter,InteriorEquipment:Electricity:Zone:OFFICE_PRIVATE_32 [J]
Zone,Meter,General:InteriorEquipment:Electricity:Zone:OFFICE_PRIVATE_32 [J]
Zone,Meter,InteriorEquipment:Electricity:Zone:STORAGE_32 [J]
Zone,Meter,General:InteriorEquipment:Electricity:Zone:STORAGE_32 [J]
Zone,Meter,InteriorEquipment:Electricity:Zone:OFFICE_OPEN_33 [J]
Zone,Meter,General:InteriorEquipment:Electricity:Zone:OFFICE_OPEN_33 [J]
Zone,Meter,InteriorEquipment:Electricity:Zone:OFFICE_PRIVATE_33 [J]
Zone,Meter,General:InteriorEquipment:Electricity:Zone:OFFICE_PRIVATE_33 [J]
Zone,Meter,InteriorEquipment:Electricity:Zone:STORAGE_33 [J]
Zone,Meter,General:InteriorEquipment:Electricity:Zone:STORAGE_33 [J]
Zone,Meter,InteriorEquipment:Electricity:Zone:CONFERENCE_34 [J]
Zone,Meter,General:InteriorEquipment:Electricity:Zone:CONFERENCE_34 [J]
Zone,Meter,InteriorEquipment:Electricity:Zone:BREAK_ROOM_34 [J]
Zone,Meter,General:InteriorEquipment:Electricity:Zone:BREAK_ROOM_34 [J]
Zone,Meter,InteriorEquipment:Electricity:Zone:MECHANICAL_34 [J]
Zone,Meter,General:InteriorEquipment:Electricity:Zone:MECHANICAL_34 [J]
Zone,Meter,InteriorEquipment:Electricity:Zone:OFFICE_PRIVATE_34 [J]
Zone,Meter,General:InteriorEquipment:Electricity:Zone:OFFICE_PRIVATE_34 [J]
Zone,Meter,InteriorEquipment:Electricity:Zone:STORAGE_34 [J]
Zone,Meter,General:InteriorEquipment:Electricity:Zone:STORAGE_34 [J]
Zone,Meter,InteriorEquipment:Electricity:Zone:LOBBY_35 [J]
Zone,Meter,General:InteriorEquipment:Electricity:Zone:LOBBY_35 [J]
Zone,Meter,InteriorEquipment:Electricity:Zone:CONFERENCE_35 [J]
Zone,Meter,General:InteriorEquipment:Electricity:Zone:CONFERENCE_35 [J]
Zone,Meter,InteriorEquipment:Electricity:Zone:MECHANICAL_35 [J]
Zone,Meter,General:InteriorEquipment:Electricity:Zone:MECHANICAL_35 [J]
Zone,Meter,InteriorEquipment:Electricity:Zone:LOBBY_36 [J]
Zone,Meter,General:InteriorEquipment:Electricity:Zone:LOBBY_36 [J]
Zone,Meter,InteriorEquipment:Electricity:Zone:CONFERENCE_36 [J]
Zone,Meter,General:InteriorEquipment:Electricity:Zone:CONFERENCE_36 [J]
Zone,Meter,InteriorEquipment:Electricity:Zone:MECHANICAL_36 [J]
Zone,Meter,General:InteriorEquipment:Electricity:Zone:MECHANICAL_36 [J]
Zone,Meter,InteriorEquipment:Electricity:Zone:OFFICE_OPEN_36 [J]
Zone,Meter,General:InteriorEquipment:Electricity:Zone:OFFICE_OPEN_36 [J]
Zone,Meter,InteriorEquipment:Electricity:Zone:STORAGE_36 [J]
Zone,Meter,General:InteriorEquipment:Electricity:Zone:STORAGE_36 [J]
Zone,Meter,InteriorEquipment:Electricity:Zone:LOBBY_37 [J]
Zone,Meter,General:InteriorEquipment:Electricity:Zone:LOBBY_37 [J]
Zone,Meter,InteriorEquipment:Electricity:Zone:BREAK_ROOM_37 [J]
Zone,Meter,General:InteriorEquipment:Electricity:Zone:BREAK_ROOM_37 [J]
Zone,Meter,InteriorEquipment:Electricity:Zone:OFFICE_PRIVATE_37 [J]
Zone,Meter,General:InteriorEquipment:Electricity:Zone:OFFICE_PRIVATE_37 [J]
Zone,Meter,InteriorEquipment:Electricity:Zone:STORAGE_37 [J]
Zone,Meter,General:InteriorEquipment:Electricity:Zone:STORAGE_37 [J]
Zone,Meter,InteriorEquipment:Electricity:Zone:LOBBY_38 [J]
Zone,Meter,General:InteriorEquipment:Electricity:Zone:LOBBY_38 [J]
Zone,Meter,InteriorEquipment:Electricity:Zone:BREAK_ROOM_38 [J]
Zone,Meter,General:InteriorEquipment:Electricity:Zone:BREAK_ROOM_38 [J]
Zone,Meter,InteriorEquipment:Electricity:Zone:MECHANICAL_38 [J]
Zone,Meter,General:InteriorEquipment:Electricity:Zone:MECHANICAL_38 [J]
Zone,Meter,InteriorEquipment:Electricity:Zone:OFFICE_PRIVATE_38 [J]
Zone,Meter,General:InteriorEquipment:Electricity:Zone:OFFICE_PRIVATE_38 [J]
Zone,Meter,InteriorEquipment:Electricity:Zone:CONFERENCE_39 [J]
Zone,Meter,General:InteriorEquipment:Electricity:Zone:CONFERENCE_39 [J]
Zone,Meter,InteriorEquipment:Electricity:Zone:OFFICE_OPEN_40 [J]
Zone,Meter,General:InteriorEquipment:Electricity:Zone:OFFICE_OPEN_40 [J]
Zone,Meter,InteriorEquipment:Electricity:Zone:OFFICE_PRIVATE_40 [J]
Zone,Meter,General:InteriorEquipment:Electricity:Zone:OFFICE_PRIVATE_40 [J]
Zone,Meter,InteriorEquipment:Electricity:Zone:STORAGE_40 [J]
Zone,Meter,General:InteriorEquipment:Electricity:Zone:STORAGE_40 [J]
Zone,Meter,InteriorEquipment:Electricity:Zone:CONFERENCE_41 [J]
Zone,Meter,General:InteriorEquipment:Electricity:Zone:CONFERENCE_41 [J]
Zone,Meter,InteriorEquipment:Electricity:Zone:OFFICE_OPEN_41 [J]
Zone,Meter,General:InteriorEquipment:Electricity:Zone:OFFICE_OPEN_41 [J]
Zone,Meter,InteriorEquipment:Electricity:Zone:OFFICE_PRIVATE_41 [J]
Zone,Meter,General:InteriorEquipment:Electricity:Zone:OFFICE_PRIVATE_41 [J]
Zone,Meter,InteriorEquipment:Electricity:Zone:STORAGE_41 [J]
Zone,Meter,General:InteriorEquipment:Electricity:Zone:STORAGE_41 [J]
Zone,Meter,InteriorEquipment:Electricity:Zone:CONFERENCE_42 [J]
Zone,Meter,General:InteriorEquipment:Electricity:Zone:CONFERENCE_42 [J]
Zone,Meter,InteriorEquipment:Electricity:Zone:OFFICE_PRIVATE_42 [J]
Zone,Meter,General:InteriorEquipment:Electricity:Zone:OFFICE_PRIVATE_42 [J]
Zone,Meter,InteriorEquipment:Electricity:Zone:LOBBY_44 [J]
Zone,Meter,General:InteriorEquipment:Electricity:Zone:LOBBY_44 [J]
Zone,Meter,InteriorEquipment:Electricity:Zone:CONFERENCE_44 [J]
Zone,Meter,General:InteriorEquipment:Electricity:Zone:CONFERENCE_44 [J]
Zone,Meter,InteriorEquipment:Electricity:Zone:LOBBY_45 [J]
Zone,Meter,General:InteriorEquipment:Electricity:Zone:LOBBY_45 [J]
Zone,Meter,InteriorEquipment:Electricity:Zone:CONFERENCE_45 [J]
Zone,Meter,General:InteriorEquipment:Electricity:Zone:CONFERENCE_45 [J]
Zone,Meter,InteriorEquipment:Electricity:Zone:OFFICE_OPEN_45 [J]
Zone,Meter,General:InteriorEquipment:Electricity:Zone:OFFICE_OPEN_45 [J]
Zone,Meter,InteriorEquipment:Electricity:Zone:CONFERENCE_46 [J]
Zone,Meter,General:InteriorEquipment:Electricity:Zone:CONFERENCE_46 [J]
Zone,Meter,InteriorEquipment:Electricity:Zone:BREAK_ROOM_46 [J]
Zone,Meter,General:InteriorEquipment:Electricity:Zone:BREAK_ROOM_46 [J]
Zone,Meter,InteriorEquipment:Electricity:Zone:OFFICE_OPEN_46 [J]
Zone,Meter,General:InteriorEquipment:Electricity:Zone:OFFICE_OPEN_46 [J]
Zone,Meter,InteriorEquipment:Electricity:Zone:OFFICE_PRIVATE_46 [J]
Zone,Meter,General:InteriorEquipment:Electricity:Zone:OFFICE_PRIVATE_46 [J]
Zone,Meter,InteriorEquipment:Electricity:Zone:STORAGE_46 [J]
Zone,Meter,General:InteriorEquipment:Electricity:Zone:STORAGE_46 [J]
Zone,Meter,InteriorEquipment:Electricity:Zone:CONFERENCE_47 [J]
Zone,Meter,General:InteriorEquipment:Electricity:Zone:CONFERENCE_47 [J]
Zone,Meter,InteriorEquipment:Electricity:Zone:BREAK_ROOM_47 [J]
Zone,Meter,General:InteriorEquipment:Electricity:Zone:BREAK_ROOM_47 [J]
Zone,Meter,InteriorEquipment:Electricity:Zone:OFFICE_OPEN_47 [J]
Zone,Meter,General:InteriorEquipment:Electricity:Zone:OFFICE_OPEN_47 [J]
Zone,Meter,InteriorEquipment:Electricity:Zone:OFFICE_PRIVATE_47 [J]
Zone,Meter,General:InteriorEquipment:Electricity:Zone:OFFICE_PRIVATE_47 [J]
Zone,Meter,InteriorEquipment:Electricity:Zone:STORAGE_47 [J]
Zone,Meter,General:InteriorEquipment:Electricity:Zone:STORAGE_47 [J]
Zone,Meter,InteriorEquipment:Electricity:Zone:LOBBY_48 [J]
Zone,Meter,General:InteriorEquipment:Electricity:Zone:LOBBY_48 [J]
Zone,Meter,InteriorEquipment:Electricity:Zone:CONFERENCE_48 [J]
Zone,Meter,General:InteriorEquipment:Electricity:Zone:CONFERENCE_48 [J]
Zone,Meter,InteriorEquipment:Electricity:Zone:MECHANICAL_48 [J]
Zone,Meter,General:InteriorEquipment:Electricity:Zone:MECHANICAL_48 [J]
Zone,Meter,InteriorEquipment:Electricity:Zone:OFFICE_PRIVATE_48 [J]
Zone,Meter,General:InteriorEquipment:Electricity:Zone:OFFICE_PRIVATE_48 [J]
Zone,Meter,InteriorEquipment:Electricity:Zone:CONFERENCE_49 [J]
Zone,Meter,General:InteriorEquipment:Electricity:Zone:CONFERENCE_49 [J]
Zone,Meter,InteriorEquipment:Electricity:Zone:OFFICE_PRIVATE_49 [J]
Zone,Meter,General:InteriorEquipment:Electricity:Zone:OFFICE_PRIVATE_49 [J]
Zone,Meter,InteriorEquipment:Electricity:Zone:STORAGE_49 [J]
Zone,Meter,General:InteriorEquipment:Electricity:Zone:STORAGE_49 [J]
Zone,Meter,InteriorEquipment:Electricity:Zone:BREAK_ROOM_50 [J]
Zone,Meter,General:InteriorEquipment:Electricity:Zone:BREAK_ROOM_50 [J]
Zone,Meter,InteriorEquipment:Electricity:Zone:OFFICE_PRIVATE_50 [J]
Zone,Meter,General:InteriorEquipment:Electricity:Zone:OFFICE_PRIVATE_50 [J]
Zone,Meter,InteriorEquipment:Electricity:Zone:OFFICE_PRIVATE_51 [J]
Zone,Meter,General:InteriorEquipment:Electricity:Zone:OFFICE_PRIVATE_51 [J]
Zone,Meter,InteriorEquipment:Electricity:Zone:STORAGE_51 [J]
Zone,Meter,General:InteriorEquipment:Electricity:Zone:STORAGE_51 [J]
Zone,Meter,InteriorEquipment:Electricity:Zone:BREAK_ROOM_52 [J]
Zone,Meter,General:InteriorEquipment:Electricity:Zone:BREAK_ROOM_52 [J]
Zone,Meter,InteriorEquipment:Electricity:Zone:MECHANICAL_52 [J]
Zone,Meter,General:InteriorEquipment:Electricity:Zone:MECHANICAL_52 [J]
Zone,Meter,InteriorEquipment:Electricity:Zone:STORAGE_52 [J]
Zone,Meter,General:InteriorEquipment:Electricity:Zone:STORAGE_52 [J]
Zone,Meter,InteriorEquipment:Electricity:Zone:BREAK_ROOM_53 [J]
Zone,Meter,General:InteriorEquipment:Electricity:Zone:BREAK_ROOM_53 [J]
Zone,Meter,InteriorEquipment:Electricity:Zone:MECHANICAL_53 [J]
Zone,Meter,General:InteriorEquipment:Electricity:Zone:MECHANICAL_53 [J]
Zone,Meter,InteriorEquipment:Electricity:Zone:OFFICE_OPEN_53 [J]
Zone,Meter,General:InteriorEquipment:Electricity:Zone:OFFICE_OPEN_53 [J]
Zone,Meter,InteriorEquipment:Electricity:Zone:STORAGE_53 [J]
Zone,Meter,General:InteriorEquipment:Electricity:Zone:STORAGE_53 [J]
Zone,Meter,InteriorEquipment:Electricity:Zone:LOBBY_54 [J]
Zone,Meter,General:InteriorEquipment:Electricity:Zone:LOBBY_54 [J]
Zone,Meter,InteriorEquipment:Electricity:Zone:OFFICE_PRIVATE_54 [J]
Zone,Meter,General:InteriorEquipment:Electricity:Zone:OFFICE_PRIVATE_54 [J]
Zone,Meter,InteriorEquipment:Electricity:Zone:STORAGE_54 [J]
Zone,Meter,General:InteriorEquipment:Electricity:Zone:STORAGE_54 [J]
Zone,Meter,InteriorEquipment:Electricity:Zone:LOBBY_55 [J]
Zone,Meter,General:InteriorEquipment:Electricity:Zone:LOBBY_55 [J]
Zone,Meter,InteriorEquipment:Electricity:Zone:MECHANICAL_55 [J]
Zone,Meter,General:InteriorEquipment:Electricity:Zone:MECHANICAL_55 [J]
Zone,Meter,InteriorEquipment:Electricity:Zone:OFFICE_OPEN_55 [J]
Zone,Meter,General:InteriorEquipment:Electricity:Zone:OFFICE_OPEN_55 [J]
Zone,Meter,InteriorEquipment:Electricity:Zone:OFFICE_PRIVATE_55 [J]
Zone,Meter,General:InteriorEquipment:Electricity:Zone:OFFICE_PRIVATE_55 [J]
Zone,Meter,InteriorEquipment:Electricity:Zone:STORAGE_55 [J]
Zone,Meter,General:InteriorEquipment:Electricity:Zone:STORAGE_55 [J]
Zone,Meter,InteriorEquipment:Electricity:Zone:LOBBY_56 [J]
Zone,Meter,General:InteriorEquipment:Electricity:Zone:LOBBY_56 [J]
Zone,Meter,InteriorEquipment:Electricity:Zone:MECHANICAL_56 [J]
Zone,Meter,General:InteriorEquipment:Electricity:Zone:MECHANICAL_56 [J]
Zone,Meter,InteriorEquipment:Electricity:Zone:OFFICE_PRIVATE_56 [J]
Zone,Meter,General:InteriorEquipment:Electricity:Zone:OFFICE_PRIVATE_56 [J]
Zone,Meter,InteriorEquipment:Electricity:Zone:STORAGE_56 [J]
Zone,Meter,General:InteriorEquipment:Electricity:Zone:STORAGE_56 [J]
Zone,Meter,InteriorEquipment:Electricity:Zone:CONFERENCE_57 [J]
Zone,Meter,General:InteriorEquipment:Electricity:Zone:CONFERENCE_57 [J]
Zone,Meter,InteriorEquipment:Electricity:Zone:BREAK_ROOM_57 [J]
Zone,Meter,General:InteriorEquipment:Electricity:Zone:BREAK_ROOM_57 [J]
[...]
Zone,Meter,General:Cooling:EnergyTransfer:Zone:CONFERENCE_79 [J]
Zone,Meter,EnergyTransfer:Zone:MECHANICAL_79 [J]
Zone,Meter,Heating:EnergyTransfer:Zone:MECHANICAL_79 [J]
Zone,Meter,General:Heating:EnergyTransfer:Zone:MECHANICAL_79 [J]
Zone,Meter,Cooling:EnergyTransfer:Zone:MECHANICAL_79 [J]
Zone,Meter,General:Cooling:EnergyTransfer:Zone:MECHANICAL_79 [J]
Zone,Meter,EnergyTransfer:Zone:OFFICE_PRIVATE_79 [J]
Zone,Meter,Heating:EnergyTransfer:Zone:OFFICE_PRIVATE_79 [J]
Zone,Meter,General:Heating:EnergyTransfer:Zone:OFFICE_PRIVATE_79 [J]
Zone,Meter,Cooling:EnergyTransfer:Zone:OFFICE_PRIVATE_79 [J]
Zone,Meter,General:Cooling:EnergyTransfer:Zone:OFFICE_PRIVATE_79 [J]
Zone,Meter,EnergyTransfer:Zone:LOBBY_80 [J]
Zone,Meter,Heating:EnergyTransfer:Zone:LOBBY_80 [J]
Zone,Meter,General:Heating:EnergyTransfer:Zone:LOBBY_80 [J]
Zone,Meter,Cooling:EnergyTransfer:Zone:LOBBY_80 [J]
Zone,Meter,General:Cooling:EnergyTransfer:Zone:LOBBY_80 [J]
Zone,Meter,EnergyTransfer:Zone:MECHANICAL_80 [J]
Zone,Meter,Heating:EnergyTransfer:Zone:MECHANICAL_80 [J]
Zone,Meter,General:Heating:EnergyTransfer:Zone:MECHANICAL_80 [J]
Zone,Meter,Cooling:EnergyTransfer:Zone:MECHANICAL_80 [J]
Zone,Meter,General:Cooling:EnergyTransfer:Zone:MECHANICAL_80 [J]
Zone,Meter,EnergyTransfer:Zone:MECHANICAL_81 [J]
Zone,Meter,Heating:EnergyTransfer:Zone:MECHANICAL_81 [J]
Zone,Meter,General:Heating:EnergyTransfer:Zone:MECHANICAL_81 [J]
Zone,Meter,Cooling:EnergyTransfer:Zone:MECHANICAL_81 [J]
Zone,Meter,General:Cooling:EnergyTransfer:Zone:MECHANICAL_81 [J]
Zone,Meter,EnergyTransfer:Zone:STORAGE_81 [J]
Zone,Meter,Heating:EnergyTransfer:Zone:STORAGE_81 [J]
Zone,Meter,General:Heating:EnergyTransfer:Zone:STORAGE_81 [J]
Zone,Meter,Cooling:EnergyTransfer:Zone:STORAGE_81 [J]
Zone,Meter,General:Cooling:EnergyTransfer:Zone:STORAGE_81 [J]
Zone,Meter,EnergyTransfer:Zone:CONFERENCE_82 [J]
Zone,Meter,Heating:EnergyTransfer:Zone:CONFERENCE_82 [J]
Zone,Meter,General:Heating:EnergyTransfer:Zone:CONFERENCE_82 [J]
Zone,Meter,Cooling:EnergyTransfer:Zone:CONFERENCE_82 [J]
Zone,Meter,General:Cooling:EnergyTransfer:Zone:CONFERENCE_82 [J]
Zone,Meter,EnergyTransfer:Zone:MECHANICAL_82 [J]
Zone,Meter,Heating:EnergyTransfer:Zone:MECHANICAL_82 [J]
Zone,Meter,General:Heating:EnergyTransfer:Zone:MECHANICAL_82 [J]
Zone,Meter,Cooling:EnergyTransfer:Zone:MECHANICAL_82 [J]
Zone,Meter,General:Cooling:EnergyTransfer:Zone:MECHANICAL_82 [J]
Zone,Meter,EnergyTransfer:Zone:STORAGE_82 [J]
Zone,Meter,Heating:EnergyTransfer:Zone:STORAGE_82 [J]
Zone,Meter,General:Heating:EnergyTransfer:Zone:STORAGE_82 [J]
Zone,Meter,Cooling:EnergyTransfer:Zone:STORAGE_82 [J]
Zone,Meter,General:Cooling:EnergyTransfer:Zone:STORAGE_82 [J]
Zone,Meter,EnergyTransfer:Zone:LOBBY_83 [J]
Zone,Meter,Heating:EnergyTransfer:Zone:LOBBY_83 [J]
Zone,Meter,General:Heating:EnergyTransfer:Zone:LOBBY_83 [J]
Zone,Meter,Cooling:EnergyTransfer:Zone:LOBBY_83 [J]
Zone,Meter,General:Cooling:EnergyTransfer:Zone:LOBBY_83 [J]
Zone,Meter,EnergyTransfer:Zone:BREAK_ROOM_84 [J]
Zone,Meter,Heating:EnergyTransfer:Zone:BREAK_ROOM_84 [J]
Zone,Meter,General:Heating:EnergyTransfer:Zone:BREAK_ROOM_84 [J]
Zone,Meter,Cooling:EnergyTransfer:Zone:BREAK_ROOM_84 [J]
Zone,Meter,General:Cooling:EnergyTransfer:Zone:BREAK_ROOM_84 [J]
Zone,Meter,EnergyTransfer:Zone:OFFICE_PRIVATE_84 [J]
Zone,Meter,Heating:EnergyTransfer:Zone:OFFICE_PRIVATE_84 [J]
Zone,Meter,General:Heating:EnergyTransfer:Zone:OFFICE_PRIVATE_84 [J]
Zone,Meter,Cooling:EnergyTransfer:Zone:OFFICE_PRIVATE_84 [J]
Zone,Meter,General:Cooling:EnergyTransfer:Zone:OFFICE_PRIVATE_84 [J]
Zone,Meter,EnergyTransfer:Zone:STORAGE_84 [J]
Zone,Meter,Heating:EnergyTransfer:Zone:STORAGE_84 [J]
Zone,Meter,General:Heating:EnergyTransfer:Zone:STORAGE_84 [J]
Zone,Meter,Cooling:EnergyTransfer:Zone:STORAGE_84 [J]
Zone,Meter,General:Cooling:EnergyTransfer:Zone:STORAGE_84 [J]
Zone,Meter,EnergyTransfer:Zone:LOBBY_85 [J]
Zone,Meter,Heating:EnergyTransfer:Zone:LOBBY_85 [J]
Zone,Meter,General:Heating:EnergyTransfer:Zone:LOBBY_85 [J]
Zone,Meter,Cooling:EnergyTransfer:Zone:LOBBY_85 [J]
Zone,Meter,General:Cooling:EnergyTransfer:Zone:LOBBY_85 [J]
Zone,Meter,EnergyTransfer:Zone:BREAK_ROOM_85 [J]
Zone,Meter,Heating:EnergyTransfer:Zone:BREAK_ROOM_85 [J]
Zone,Meter,General:Heating:EnergyTransfer:Zone:BREAK_ROOM_85 [J]
Zone,Meter,Cooling:EnergyTransfer:Zone:BREAK_ROOM_85 [J]
Zone,Meter,General:Cooling:EnergyTransfer:Zone:BREAK_ROOM_85 [J]
Zone,Meter,EnergyTransfer:Zone:MECHANICAL_85 [J]
Zone,Meter,Heating:EnergyTransfer:Zone:MECHANICAL_85 [J]
Zone,Meter,General:Heating:EnergyTransfer:Zone:MECHANICAL_85 [J]
Zone,Meter,Cooling:EnergyTransfer:Zone:MECHANICAL_85 [J]
Zone,Meter,General:Cooling:EnergyTransfer:Zone:MECHANICAL_85 [J]
Zone,Meter,EnergyTransfer:Zone:OFFICE_PRIVATE_85 [J]
Zone,Meter,Heating:EnergyTransfer:Zone:OFFICE_PRIVATE_85 [J]
Zone,Meter,General:Heating:EnergyTransfer:Zone:OFFICE_PRIVATE_85 [J]
Zone,Meter,Cooling:EnergyTransfer:Zone:OFFICE_PRIVATE_85 [J]
Zone,Meter,General:Cooling:EnergyTransfer:Zone:OFFICE_PRIVATE_85 [J]
Zone,Meter,EnergyTransfer:Zone:STORAGE_85 [J]
Zone,Meter,Heating:EnergyTransfer:Zone:STORAGE_85 [J]
Zone,Meter,General:Heating:EnergyTransfer:Zone:STORAGE_85 [J]
Zone,Meter,Cooling:EnergyTransfer:Zone:STORAGE_85 [J]
Zone,Meter,General:Cooling:EnergyTransfer:Zone:STORAGE_85 [J]
Zone,Meter,EnergyTransfer:Zone:LOBBY_86 [J]
Zone,Meter,Heating:EnergyTransfer:Zone:LOBBY_86 [J]
Zone,Meter,General:Heating:EnergyTransfer:Zone:LOBBY_86 [J]
Zone,Meter,Cooling:EnergyTransfer:Zone:LOBBY_86 [J]
Zone,Meter,General:Cooling:EnergyTransfer:Zone:LOBBY_86 [J]
Zone,Meter,EnergyTransfer:Zone:MECHANICAL_86 [J]
Zone,Meter,Heating:EnergyTransfer:Zone:MECHANICAL_86 [J]
Zone,Meter,General:Heating:EnergyTransfer:Zone:MECHANICAL_86 [J]
Zone,Meter,Cooling:EnergyTransfer:Zone:MECHANICAL_86 [J]
Zone,Meter,General:Cooling:EnergyTransfer:Zone:MECHANICAL_86 [J]
Zone,Meter,EnergyTransfer:Zone:OFFICE_OPEN_86 [J]
Zone,Meter,Heating:EnergyTransfer:Zone:OFFICE_OPEN_86 [J]
Zone,Meter,General:Heating:EnergyTransfer:Zone:OFFICE_OPEN_86 [J]
Zone,Meter,Cooling:EnergyTransfer:Zone:OFFICE_OPEN_86 [J]
Zone,Meter,General:Cooling:EnergyTransfer:Zone:OFFICE_OPEN_86 [J]
Zone,Meter,EnergyTransfer:Zone:OFFICE_PRIVATE_86 [J]
Zone,Meter,Heating:EnergyTransfer:Zone:OFFICE_PRIVATE_86 [J]
Zone,Meter,General:Heating:EnergyTransfer:Zone:OFFICE_PRIVATE_86 [J]
Zone,Meter,Cooling:EnergyTransfer:Zone:OFFICE_PRIVATE_86 [J]
Zone,Meter,General:Cooling:EnergyTransfer:Zone:OFFICE_PRIVATE_86 [J]
Zone,Meter,EnergyTransfer:Zone:STORAGE_86 [J]
Zone,Meter,Heating:EnergyTransfer:Zone:STORAGE_86 [J]
Zone,Meter,General:Heating:EnergyTransfer:Zone:STORAGE_86 [J]
Zone,Meter,Cooling:EnergyTransfer:Zone:STORAGE_86 [J]
Zone,Meter,General:Cooling:EnergyTransfer:Zone:STORAGE_86 [J]
Zone,Meter,EnergyTransfer:Zone:CONFERENCE_87 [J]
Zone,Meter,Heating:EnergyTransfer:Zone:CONFERENCE_87 [J]
Zone,Meter,General:Heating:EnergyTransfer:Zone:CONFERENCE_87 [J]
Zone,Meter,Cooling:EnergyTransfer:Zone:CONFERENCE_87 [J]
Zone,Meter,General:Cooling:EnergyTransfer:Zone:CONFERENCE_87 [J]
Zone,Meter,EnergyTransfer:Zone:MECHANICAL_87 [J]
Zone,Meter,Heating:EnergyTransfer:Zone:MECHANICAL_87 [J]
Zone,Meter,General:Heating:EnergyTransfer:Zone:MECHANICAL_87 [J]
Zone,Meter,Cooling:EnergyTransfer:Zone:MECHANICAL_87 [J]
Zone,Meter,General:Cooling:EnergyTransfer:Zone:MECHANICAL_87 [J]
Zone,Meter,EnergyTransfer:Zone:OFFICE_OPEN_87 [J]
Zone,Meter,Heating:EnergyTransfer:Zone:OFFICE_OPEN_87 [J]
Zone,Meter,General:Heating:EnergyTransfer:Zone:OFFICE_OPEN_87 [J]
Zone,Meter,Cooling:EnergyTransfer:Zone:OFFICE_OPEN_87 [J]
Zone,Meter,General:Cooling:EnergyTransfer:Zone:OFFICE_OPEN_87 [J]
Zone,Meter,EnergyTransfer:Zone:LOBBY_88 [J]
Zone,Meter,Heating:EnergyTransfer:Zone:LOBBY_88 [J]
Zone,Meter,General:Heating:EnergyTransfer:Zone:LOBBY_88 [J]
Zone,Meter,Cooling:EnergyTransfer:Zone:LOBBY_88 [J]
Zone,Meter,General:Cooling:EnergyTransfer:Zone:LOBBY_88 [J]
Zone,Meter,EnergyTransfer:Zone:CONFERENCE_88 [J]
Zone,Meter,Heating:EnergyTransfer:Zone:CONFERENCE_88 [J]
Zone,Meter,General:Heating:EnergyTransfer:Zone:CONFERENCE_88 [J]
Zone,Meter,Cooling:EnergyTransfer:Zone:CONFERENCE_88 [J]
Zone,Meter,General:Cooling:EnergyTransfer:Zone:CONFERENCE_88 [J]
Zone,Meter,EnergyTransfer:Zone:OFFICE_PRIVATE_88 [J]
Zone,Meter,Heating:EnergyTransfer:Zone:OFFICE_PRIVATE_88 [J]
Zone,Meter,General:Heating:EnergyTransfer:Zone:OFFICE_PRIVATE_88 [J]
Zone,Meter,Cooling:EnergyTransfer:Zone:OFFICE_PRIVATE_88 [J]
Zone,Meter,General:Cooling:EnergyTransfer:Zone:OFFICE_PRIVATE_88 [J]
Zone,Meter,EnergyTransfer:Zone:STORAGE_88 [J]
Zone,Meter,Heating:EnergyTransfer:Zone:STORAGE_88 [J]
Zone,Meter,General:Heating:EnergyTransfer:Zone:STORAGE_88 [J]
Zone,Meter,Cooling:EnergyTransfer:Zone:STORAGE_88 [J]
Zone,Meter,General:Cooling:EnergyTransfer:Zone:STORAGE_88 [J]
Zone,Meter,EnergyTransfer:Zone:CONFERENCE_89 [J]
Zone,Meter,Heating:EnergyTransfer:Zone:CONFERENCE_89 [J]
Zone,Meter,General:Heating:EnergyTransfer:Zone:CONFERENCE_89 [J]
Zone,Meter,Cooling:EnergyTransfer:Zone:CONFERENCE_89 [J]
Zone,Meter,General:Cooling:EnergyTransfer:Zone:CONFERENCE_89 [J]
Zone,Meter,EnergyTransfer:Zone:BREAK_ROOM_89 [J]
Zone,Meter,Heating:EnergyTransfer:Zone:BREAK_ROOM_89 [J]
Zone,Meter,General:Heating:EnergyTransfer:Zone:BREAK_ROOM_89 [J]
Zone,Meter,Cooling:EnergyTransfer:Zone:BREAK_ROOM_89 [J]
Zone,Meter,General:Cooling:EnergyTransfer:Zone:BREAK_ROOM_89 [J]
Zone,Meter,EnergyTransfer:Zone:MECHANICAL_89 [J]
Zone,Meter,Heating:EnergyTransfer:Zone:MECHANICAL_89 [J]
Zone,Meter,General:Heating:EnergyTransfer:Zone:MECHANICAL_89 [J]
Zone,Meter,Cooling:EnergyTransfer:Zone:MECHANICAL_89 [J]
Zone,Meter,General:Cooling:EnergyTransfer:Zone:MECHANICAL_89 [J]
Zone,Meter,EnergyTransfer:Zone:OFFICE_OPEN_89 [J]
Zone,Meter,Heating:EnergyTransfer:Zone:OFFICE_OPEN_89 [J]
Zone,Meter,General:Heating:EnergyTransfer:Zone:OFFICE_OPEN_89 [J]
Zone,Meter,Cooling:EnergyTransfer:Zone:OFFICE_OPEN_89 [J]
Zone,Meter,General:Cooling:EnergyTransfer:Zone:OFFICE_OPEN_89 [J]
Zone,Meter,EnergyTransfer:Zone:OFFICE_PRIVATE_89 [J]
Zone,Meter,Heating:EnergyTransfer:Zone:OFFICE_PRIVATE_89 [J]
Zone,Meter,General:Heating:EnergyTransfer:Zone:OFFICE_PRIVATE_89 [J]
Zone,Meter,Cooling:EnergyTransfer:Zone:OFFICE_PRIVATE_89 [J]
Zone,Meter,General:Cooling:EnergyTransfer:Zone:OFFICE_PRIVATE_89 [J]
Zone,Meter,EnergyTransfer:Zone:STORAGE_89 [J]
Zone,Meter,Heating:EnergyTransfer:Zone:STORAGE_89 [J]
Zone,Meter,General:Heating:EnergyTransfer:Zone:STORAGE_89 [J]
Zone,Meter,Cooling:EnergyTransfer:Zone:STORAGE_89 [J]
Zone,Meter,General:Cooling:EnergyTransfer:Zone:STORAGE_89 [J]
Zone,Meter,EnergyTransfer:Zone:CONFERENCE_90 [J]
Zone,Meter,Heating:EnergyTransfer:Zone:CONFERENCE_90 [J]
Zone,Meter,General:Heating:EnergyTransfer:Zone:CONFERENCE_90 [J]
Zone,Meter,Cooling:EnergyTransfer:Zone:CONFERENCE_90 [J]
Zone,Meter,General:Cooling:EnergyTransfer:Zone:CONFERENCE_90 [J]
Zone,Meter,EnergyTransfer:Zone:OFFICE_OPEN_90 [J]
Zone,Meter,Heating:EnergyTransfer:Zone:OFFICE_OPEN_90 [J]
Zone,Meter,General:Heating:EnergyTransfer:Zone:OFFICE_OPEN_90 [J]
Zone,Meter,Cooling:EnergyTransfer:Zone:OFFICE_OPEN_90 [J]
Zone,Meter,General:Cooling:EnergyTransfer:Zone:OFFICE_OPEN_90 [J]
Zone,Meter,EnergyTransfer:Zone:STORAGE_90 [J]
Zone,Meter,Heating:EnergyTransfer:Zone:STORAGE_90 [J]
Zone,Meter,General:Heating:EnergyTransfer:Zone:STORAGE_90 [J]
Zone,Meter,Cooling:EnergyTransfer:Zone:STORAGE_90 [J]
Zone,Meter,General:Cooling:EnergyTransfer:Zone:STORAGE_90 [J]
Zone,Meter,EnergyTransfer:Zone:LOBBY_91 [J]
Zone,Meter,Heating:EnergyTransfer:Zone:LOBBY_91 [J]
Zone,Meter,General:Heating:EnergyTransfer:Zone:LOBBY_91 [J]
Zone,Meter,Cooling:EnergyTransfer:Zone:LOBBY_91 [J]
Zone,Meter,General:Cooling:EnergyTransfer:Zone:LOBBY_91 [J]
Zone,Meter,EnergyTransfer:Zone:CONFERENCE_91 [J]
Zone,Meter,Heating:EnergyTransfer:Zone:CONFERENCE_91 [J]
Zone,Meter,General:Heating:EnergyTransfer:Zone:CONFERENCE_91 [J]
Zone,Meter,Cooling:EnergyTransfer:Zone:CONFERENCE_91 [J]
Zone,Meter,General:Cooling:EnergyTransfer:Zone:CONFERENCE_91 [J]
Zone,Meter,EnergyTransfer:Zone:MECHANICAL_91 [J]
Zone,Meter,Heating:EnergyTransfer:Zone:MECHANICAL_91 [J]
Zone,Meter,General:Heating:EnergyTransfer:Zone:MECHANICAL_91 [J]
Zone,Meter,Cooling:EnergyTransfer:Zone:MECHANICAL_91 [J]
Zone,Meter,General:Cooling:EnergyTransfer:Zone:MECHANICAL_91 [J]
Zone,Meter,EnergyTransfer:Zone:STORAGE_91 [J]
Zone,Meter,Heating:EnergyTransfer:Zone:STORAGE_91 [J]
Zone,Meter,General:Heating:EnergyTransfer:Zone:STORAGE_91 [J]
Zone,Meter,Cooling:EnergyTransfer:Zone:STORAGE_91 [J]
Zone,Meter,General:Cooling:EnergyTransfer:Zone:STORAGE_91 [J]
Zone,Meter,EnergyTransfer:Zone:LOBBY_92 [J]
Zone,Meter,Heating:EnergyTransfer:Zone:LOBBY_92 [J]
Zone,Meter,General:Heating:EnergyTransfer:Zone:LOBBY_92 [J]
Zone,Meter,Cooling:EnergyTransfer:Zone:LOBBY_92 [J]
Zone,Meter,General:Cooling:EnergyTransfer:Zone:LOBBY_92 [J]
Zone,Meter,EnergyTransfer:Zone:CONFERENCE_92 [J]
Zone,Meter,Heating:EnergyTransfer:Zone:CONFERENCE_92 [J]
Zone,Meter,General:Heating:EnergyTransfer:Zone:CONFERENCE_92 [J]
Zone,Meter,Cooling:EnergyTransfer:Zone:CONFERENCE_92 [J]
Zone,Meter,General:Cooling:EnergyTransfer:Zone:CONFERENCE_92 [J]
Zone,Meter,EnergyTransfer:Zone:OFFICE_PRIVATE_92 [J]
Zone,Meter,Heating:EnergyTransfer:Zone:OFFICE_PRIVATE_92 [J]
Zone,Meter,General:Heating:EnergyTransfer:Zone:OFFICE_PRIVATE_92 [J]
Zone,Meter,Cooling:EnergyTransfer:Zone:OFFICE_PRIVATE_92 [J]
Zone,Meter,General:Cooling:EnergyTransfer:Zone:OFFICE_PRIVATE_92 [J]
Zone,Meter,EnergyTransfer:Zone:MECHANICAL_93 [J]
Zone,Meter,Heating:EnergyTransfer:Zone:MECHANICAL_93 [J]
Zone,Meter,General:Heating:EnergyTransfer:Zone:MECHANICAL_93 [J]
Zone,Meter,Cooling:EnergyTransfer:Zone:MECHANICAL_93 [J]
Zone,Meter,General:Cooling:EnergyTransfer:Zone:MECHANICAL_93 [J]
Zone,Meter,EnergyTransfer:Zone:OFFICE_PRIVATE_93 [J]
Zone,Meter,Heating:EnergyTransfer:Zone:OFFICE_PRIVATE_93 [J]
Zone,Meter,General:Heating:EnergyTransfer:Zone:OFFICE_PRIVATE_93 [J]
Zone,Meter,Cooling:EnergyTransfer:Zone:OFFICE_PRIVATE_93 [J]
Zone,Meter,General:Cooling:EnergyTransfer:Zone:OFFICE_PRIVATE_93 [J]
Zone,Meter,EnergyTransfer:Zone:LOBBY_94 [J]
Zone,Meter,Heating:EnergyTransfer:Zone:LOBBY_94 [J]
Zone,Meter,General:Heating:EnergyTransfer:Zone:LOBBY_94 [J]
Zone,Meter,Cooling:EnergyTransfer:Zone:LOBBY_94 [J]
Zone,Meter,General:Cooling:EnergyTransfer:Zone:LOBBY_94 [J]
Zone,Meter,EnergyTransfer:Zone:BREAK_ROOM_94 [J]
Zone,Meter,Heating:EnergyTransfer:Zone:BREAK_ROOM_94 [J]
Zone,Meter,General:Heating:EnergyTransfer:Zone:BREAK_ROOM_94 [J]
Zone,Meter,Cooling:EnergyTransfer:Zone:BREAK_ROOM_94 [J]
Zone,Meter,General:Cooling:EnergyTransfer:Zone:BREAK_ROOM_94 [J]
Zone,Meter,EnergyTransfer:Zone:OFFICE_OPEN_94 [J]
Zone,Meter,Heating:EnergyTransfer:Zone:OFFICE_OPEN_94 [J]
Zone,Meter,General:Heating:EnergyTransfer:Zone:OFFICE_OPEN_94 [J]
Zone,Meter,Cooling:EnergyTransfer:Zone:OFFICE_OPEN_94 [J]
Zone,Meter,General:Cooling:EnergyTransfer:Zone:OFFICE_OPEN_94 [J]
Zone,Meter,EnergyTransfer:Zone:OFFICE_PRIVATE_94 [J]
Zone,Meter,Heating:EnergyTransfer:Zone:OFFICE_PRIVATE_94 [J]
Zone,Meter,General:Heating:EnergyTransfer:Zone:OFFICE_PRIVATE_94 [J]
Zone,Meter,Cooling:EnergyTransfer:Zone:OFFICE_PRIVATE_94 [J]
Zone,Meter,General:Cooling:EnergyTransfer:Zone:OFFICE_PRIVATE_94 [J]
Zone,Meter,EnergyTransfer:Zone:LOBBY_95 [J]
Zone,Meter,Heating:EnergyTransfer:Zone:LOBBY_95 [J]
Zone,Meter,General:Heating:EnergyTransfer:Zone:LOBBY_95 [J]
Zone,Meter,Cooling:EnergyTransfer:Zone:LOBBY_95 [J]
Zone,Meter,General:Cooling:EnergyTransfer:Zone:LOBBY_95 [J]
Zone,Meter,EnergyTransfer:Zone:CONFERENCE_95 [J]
Zone,Meter,Heating:EnergyTransfer:Zone:CONFERENCE_95 [J]
Zone,Meter,General:Heating:EnergyTransfer:Zone:CONFERENCE_95 [J]
Zone,Meter,Cooling:EnergyTransfer:Zone:CONFERENCE_95 [J]
Zone,Meter,General:Cooling:EnergyTransfer:Zone:CONFERENCE_95 [J]
Zone,Meter,EnergyTransfer:Zone:BREAK_ROOM_95 [J]
Zone,Meter,Heating:EnergyTransfer:Zone:BREAK_ROOM_95 [J]
Zone,Meter,General:Heating:EnergyTransfer:Zone:BREAK_ROOM_95 [J]
Zone,Meter,Cooling:EnergyTransfer:Zone:BREAK_ROOM_95 [J]
Zone,Meter,General:Cooling:EnergyTransfer:Zone:BREAK_ROOM_95 [J]
Zone,Meter,EnergyTransfer:Zone:MECHANICAL_95 [J]
Zone,Meter,Heating:EnergyTransfer:Zone:MECHANICAL_95 [J]
Zone,Meter,General:Heating:EnergyTransfer:Zone:MECHANICAL_95 [J]
Zone,Meter,Cooling:EnergyTransfer:Zone:MECHANICAL_95 [J]
Zone,Meter,General:Cooling:EnergyTransfer:Zone:MECHANICAL_95 [J]
Zone,Meter,EnergyTransfer:Zone:OFFICE_OPEN_95 [J]
Zone,Meter,Heating:EnergyTransfer:Zone:OFFICE_OPEN_95 [J]
Zone,Meter,General:Heating:EnergyTransfer:Zone:OFFICE_OPEN_95 [J]
Zone,Meter,Cooling:EnergyTransfer:Zone:OFFICE_OPEN_95 [J]
Zone,Meter,General:Cooling:EnergyTransfer:Zone:OFFICE_OPEN_95 [J]
Zone,Meter,EnergyTransfer:Zone:STORAGE_95 [J]
Zone,Meter,Heating:EnergyTransfer:Zone:STORAGE_95 [J]
Zone,Meter,General:Heating:EnergyTransfer:Zone:STORAGE_95 [J]
Zone,Meter,Cooling:EnergyTransfer:Zone:STORAGE_95 [J]
Zone,Meter,General:Cooling:EnergyTransfer:Zone:STORAGE_95 [J]
Zone,Meter,EnergyTransfer:Zone:LOBBY_96 [J]
Zone,Meter,Heating:EnergyTransfer:Zone:LOBBY_96 [J]
Zone,Meter,General:Heating:EnergyTransfer:Zone:LOBBY_96 [J]
Zone,Meter,Cooling:EnergyTransfer:Zone:LOBBY_96 [J]
Zone,Meter,General:Cooling:EnergyTransfer:Zone:LOBBY_96 [J]
Zone,Meter,EnergyTransfer:Zone:BREAK_ROOM_96 [J]
Zone,Meter,Heating:EnergyTransfer:Zone:BREAK_ROOM_96 [J]
Zone,Meter,General:Heating:EnergyTransfer:Zone:BREAK_ROOM_96 [J]
Zone,Meter,Cooling:EnergyTransfer:Zone:BREAK_ROOM_96 [J]
Zone,Meter,General:Cooling:EnergyTransfer:Zone:BREAK_ROOM_96 [J]
Zone,Meter,EnergyTransfer:Zone:MECHANICAL_96 [J]
Zone,Meter,Heating:EnergyTransfer:Zone:MECHANICAL_96 [J]
Zone,Meter,General:Heating:EnergyTransfer:Zone:MECHANICAL_96 [J]
Zone,Meter,Cooling:EnergyTransfer:Zone:MECHANICAL_96 [J]
Zone,Meter,General:Cooling:EnergyTransfer:Zone:MECHANICAL_96 [J]
Zone,Meter,EnergyTransfer:Zone:OFFICE_PRIVATE_96 [J]
Zone,Meter,Heating:EnergyTransfer:Zone:OFFICE_PRIVATE_96 [J]
Zone,Meter,General:Heating:EnergyTransfer:Zone:OFFICE_PRIVATE_96 [J]
Zone,Meter,Cooling:EnergyTransfer:Zone:OFFICE_PRIVATE_96 [J]
Zone,Meter,General:Cooling:EnergyTransfer:Zone:OFFICE_PRIVATE_96 [J]
Zone,Meter,EnergyTransfer:Zone:BREAK_ROOM_97 [J]
Zone,Meter,Heating:EnergyTransfer:Zone:BREAK_ROOM_97 [J]
Zone,Meter,General:Heating:EnergyTransfer:Zone:BREAK_ROOM_97 [J]
Zone,Meter,Cooling:EnergyTransfer:Zone:BREAK_ROOM_97 [J]
Zone,Meter,General:Cooling:EnergyTransfer:Zone:BREAK_ROOM_97 [J]
Zone,Meter,EnergyTransfer:Zone:OFFICE_PRIVATE_97 [J]
Zone,Meter,Heating:EnergyTransfer:Zone:OFFICE_PRIVATE_97 [J]
Zone,Meter,General:Heating:EnergyTransfer:Zone:OFFICE_PRIVATE_97 [J]
Zone,Meter,Cooling:EnergyTransfer:Zone:OFFICE_PRIVATE_97 [J]
Zone,Meter,General:Cooling:EnergyTransfer:Zone:OFFICE_PRIVATE_97 [J]
Zone,Meter,EnergyTransfer:Zone:STORAGE_97 [J]
Zone,Meter,Heating:EnergyTransfer:Zone:STORAGE_97 [J]
Zone,Meter,General:Heating:EnergyTransfer:Zone:STORAGE_97 [J]
Zone,Meter,Cooling:EnergyTransfer:Zone:STORAGE_97 [J]
Zone,Meter,General:Cooling:EnergyTransfer:Zone:STORAGE_97 [J]
Zone,Meter,EnergyTransfer:HVAC [J]
Zone,Meter,HeatingCoils:EnergyTransfer [J]
Zone,Meter,Electricity:HVAC [J]
Zone,Meter,Heating:Electricity [J]
Zone,Meter,General:Heating:Electricity [J]
Zone,Meter,Fans:Electricity [J]
Zone,Meter,General:Fans:Electricity [J]
Zone,Meter,CoolingCoils:EnergyTransfer [J]
Zone,Meter,Cooling:Electricity [J]
Zone,Meter,General:Cooling:Electricity [J]
Zone,Meter,ElectricityPurchased:Facility [J]
Zone,Meter,ElectricityPurchased:Plant [J]
Zone,Meter,Cogeneration:ElectricityPurchased [J]
Zone,Meter,General:Cogeneration:ElectricityPurchased [J]
Zone,Meter,ElectricitySurplusSold:Facility [J]
Zone,Meter,ElectricitySurplusSold:Plant [J]
Zone,Meter,Cogeneration:ElectricitySurplusSold [J]
Zone,Meter,General:Cogeneration:ElectricitySurplusSold [J]
Zone,Meter,ElectricityNet:Facility [J]
Zone,Meter,ElectricityNet:Plant [J]
Zone,Meter,Cogeneration:ElectricityNet [J]
Zone,Meter,General:Cogeneration:ElectricityNet [J]
Zone,Meter,Carbon Equivalent:Facility [kg]
Zone,Meter,CarbonEquivalentEmissions:Carbon Equivalent [kg]
