Program Version,EnergyPlus, Version 24.2.0-94a887817b, YMD=2025.11.02 18:15
! This file shows details about the branches, nodes, and other
! elements of the flow connections.
! This file is intended for use in "debugging" potential problems
! that may also be detected by the program, but may be more easily
! identified by "eye".
! This file is also intended to support software which draws a
! schematic diagram of the HVAC system.
! ===============================================================
! #Nodes,<Number of Unique Nodes>
 #Nodes,3421
! <Node>,<NodeNumber>,<Node Name>,<Node Fluid Type>,<# Times Node Referenced After Definition>
 Node,1,CONFERENCE_0_Z1_ADUOUTLET,Air,4
 Node,2,BREAK_ROOM_0_Z2_ADUOUTLET,Air,4
 Node,3,STORAGE_0_Z3_ADUOUTLET,Air,4
 Node,4,LOBBY_1_Z4_ADUOUTLET,Air,4
 Node,5,BREAK_ROOM_1_Z5_ADUOUTLET,Air,4
 Node,6,OFFICE_OPEN_1_Z6_ADUOUTLET,Air,4
 Node,7,OFFICE_PRIVATE_1_Z7_ADUOUTLET,Air,4
 Node,8,STORAGE_1_Z8_ADUOUTLET,Air,4
 Node,9,STORAGE_2_Z9_ADUOUTLET,Air,4
 Node,10,LOBBY_3_Z10_ADUOUTLET,Air,4
 Node,11,BREAK_ROOM_3_Z11_ADUOUTLET,Air,4
 Node,12,MECHANICAL_3_Z12_ADUOUTLET,Air,4
 Node,13,OFFICE_PRIVATE_3_Z13_ADUOUTLET,Air,4
 Node,14,LOBBY_4_Z14_ADUOUTLET,Air,4
 Node,15,BREAK_ROOM_4_Z15_ADUOUTLET,Air,4
 Node,16,OFFICE_OPEN_4_Z16_ADUOUTLET,Air,4
 Node,17,OFFICE_PRIVATE_4_Z17_ADUOUTLET,Air,4
 Node,18,STORAGE_4_Z18_ADUOUTLET,Air,4
 Node,19,LOBBY_5_Z19_ADUOUTLET,Air,4
 Node,20,MECHANICAL_5_Z20_ADUOUTLET,Air,4
 Node,21,OFFICE_OPEN_5_Z21_ADUOUTLET,Air,4
 Node,22,BREAK_ROOM_6_Z22_ADUOUTLET,Air,4
 Node,23,STORAGE_6_Z23_ADUOUTLET,Air,4
 Node,24,LOBBY_7_Z24_ADUOUTLET,Air,4
 Node,25,CONFERENCE_7_Z25_ADUOUTLET,Air,4
 Node,26,MECHANICAL_7_Z26_ADUOUTLET,Air,4
 Node,27,OFFICE_PRIVATE_7_Z27_ADUOUTLET,Air,4
 Node,28,STORAGE_7_Z28_ADUOUTLET,Air,4
 Node,29,LOBBY_8_Z29_ADUOUTLET,Air,4
 Node,30,BREAK_ROOM_8_Z30_ADUOUTLET,Air,4
 Node,31,MECHANICAL_8_Z31_ADUOUTLET,Air,4
 Node,32,OFFICE_OPEN_8_Z32_ADUOUTLET,Air,4
 Node,33,BREAK_ROOM_9_Z33_ADUOUTLET,Air,4
 Node,34,OFFICE_PRIVATE_9_Z34_ADUOUTLET,Air,4
 Node,35,BREAK_ROOM_10_Z35_ADUOUTLET,Air,4
 Node,36,MECHANICAL_10_Z36_ADUOUTLET,Air,4
 Node,37,LOBBY_11_Z37_ADUOUTLET,Air,4
 Node,38,CONFERENCE_11_Z38_ADUOUTLET,Air,4
 Node,39,BREAK_ROOM_11_Z39_ADUOUTLET,Air,4
 Node,40,OFFICE_OPEN_11_Z40_ADUOUTLET,Air,4
 Node,41,LOBBY_12_Z41_ADUOUTLET,Air,4
 Node,42,OFFICE_PRIVATE_12_Z42_ADUOUTLET,Air,4
 Node,43,STORAGE_12_Z43_ADUOUTLET,Air,4
 Node,44,LOBBY_13_Z44_ADUOUTLET,Air,4
 Node,45,CONFERENCE_13_Z45_ADUOUTLET,Air,4
 Node,46,BREAK_ROOM_13_Z46_ADUOUTLET,Air,4
 Node,47,MECHANICAL_13_Z47_ADUOUTLET,Air,4
 Node,48,OFFICE_PRIVATE_13_Z48_ADUOUTLET,Air,4
 Node,49,STORAGE_13_Z49_ADUOUTLET,Air,4
 Node,50,LOBBY_14_Z50_ADUOUTLET,Air,4
 Node,51,LOBBY_16_Z51_ADUOUTLET,Air,4
 Node,52,CONFERENCE_16_Z52_ADUOUTLET,Air,4
 Node,53,MECHANICAL_16_Z53_ADUOUTLET,Air,4
 Node,54,OFFICE_OPEN_16_Z54_ADUOUTLET,Air,4
 Node,55,OFFICE_PRIVATE_16_Z55_ADUOUTLET,Air,4
 Node,56,OFFICE_OPEN_17_Z56_ADUOUTLET,Air,4
 Node,57,LOBBY_18_Z57_ADUOUTLET,Air,4
 Node,58,CONFERENCE_18_Z58_ADUOUTLET,Air,4
 Node,59,BREAK_ROOM_18_Z59_ADUOUTLET,Air,4
 Node,60,MECHANICAL_18_Z60_ADUOUTLET,Air,4
 Node,61,LOBBY_19_Z61_ADUOUTLET,Air,4
 Node,62,BREAK_ROOM_19_Z62_ADUOUTLET,Air,4
 Node,63,OFFICE_PRIVATE_19_Z63_ADUOUTLET,Air,4
 Node,64,STORAGE_19_Z64_ADUOUTLET,Air,4
 Node,65,BREAK_ROOM_21_Z65_ADUOUTLET,Air,4
 Node,66,OFFICE_PRIVATE_21_Z66_ADUOUTLET,Air,4
 Node,67,STORAGE_21_Z67_ADUOUTLET,Air,4
 Node,68,BREAK_ROOM_22_Z68_ADUOUTLET,Air,4
 Node,69,STORAGE_22_Z69_ADUOUTLET,Air,4
 Node,70,LOBBY_23_Z70_ADUOUTLET,Air,4
 Node,71,CONFERENCE_23_Z71_ADUOUTLET,Air,4
 Node,72,OFFICE_OPEN_23_Z72_ADUOUTLET,Air,4
 Node,73,OFFICE_PRIVATE_23_Z73_ADUOUTLET,Air,4
 Node,74,LOBBY_24_Z74_ADUOUTLET,Air,4
 Node,75,CONFERENCE_24_Z75_ADUOUTLET,Air,4
 Node,76,BREAK_ROOM_24_Z76_ADUOUTLET,Air,4
 Node,77,OFFICE_OPEN_24_Z77_ADUOUTLET,Air,4
 Node,78,OFFICE_PRIVATE_24_Z78_ADUOUTLET,Air,4
 Node,79,STORAGE_24_Z79_ADUOUTLET,Air,4
 Node,80,BREAK_ROOM_25_Z80_ADUOUTLET,Air,4
 Node,81,MECHANICAL_25_Z81_ADUOUTLET,Air,4
 Node,82,OFFICE_PRIVATE_25_Z82_ADUOUTLET,Air,4
 Node,83,LOBBY_26_Z83_ADUOUTLET,Air,4
 Node,84,BREAK_ROOM_26_Z84_ADUOUTLET,Air,4
 Node,85,OFFICE_OPEN_26_Z85_ADUOUTLET,Air,4
 Node,86,MECHANICAL_27_Z86_ADUOUTLET,Air,4
 Node,87,OFFICE_PRIVATE_27_Z87_ADUOUTLET,Air,4
 Node,88,STORAGE_27_Z88_ADUOUTLET,Air,4
 Node,89,CONFERENCE_28_Z89_ADUOUTLET,Air,4
 Node,90,MECHANICAL_28_Z90_ADUOUTLET,Air,4
 Node,91,OFFICE_OPEN_28_Z91_ADUOUTLET,Air,4
 Node,92,OFFICE_PRIVATE_28_Z92_ADUOUTLET,Air,4
 Node,93,STORAGE_28_Z93_ADUOUTLET,Air,4
 Node,94,BREAK_ROOM_29_Z94_ADUOUTLET,Air,4
 Node,95,MECHANICAL_29_Z95_ADUOUTLET,Air,4
 Node,96,OFFICE_OPEN_29_Z96_ADUOUTLET,Air,4
 Node,97,OFFICE_PRIVATE_29_Z97_ADUOUTLET,Air,4
 Node,98,STORAGE_29_Z98_ADUOUTLET,Air,4
 Node,99,CONFERENCE_30_Z99_ADUOUTLET,Air,4
 Node,100,OFFICE_PRIVATE_30_Z100_ADUOUTLET,Air,4
 Node,101,OFFICE_OPEN_31_Z101_ADUOUTLET,Air,4
 Node,102,LOBBY_32_Z102_ADUOUTLET,Air,4
 Node,103,OFFICE_PRIVATE_32_Z103_ADUOUTLET,Air,4
 Node,104,STORAGE_32_Z104_ADUOUTLET,Air,4
 Node,105,OFFICE_OPEN_33_Z105_ADUOUTLET,Air,4
 Node,106,OFFICE_PRIVATE_33_Z106_ADUOUTLET,Air,4
 Node,107,STORAGE_33_Z107_ADUOUTLET,Air,4
 Node,108,CONFERENCE_34_Z108_ADUOUTLET,Air,4
 Node,109,BREAK_ROOM_34_Z109_ADUOUTLET,Air,4
 Node,110,MECHANICAL_34_Z110_ADUOUTLET,Air,4
 Node,111,OFFICE_PRIVATE_34_Z111_ADUOUTLET,Air,4
 Node,112,STORAGE_34_Z112_ADUOUTLET,Air,4
 Node,113,LOBBY_35_Z113_ADUOUTLET,Air,4
 Node,114,CONFERENCE_35_Z114_ADUOUTLET,Air,4
 Node,115,MECHANICAL_35_Z115_ADUOUTLET,Air,4
 Node,116,LOBBY_36_Z116_ADUOUTLET,Air,4
 Node,117,CONFERENCE_36_Z117_ADUOUTLET,Air,4
 Node,118,MECHANICAL_36_Z118_ADUOUTLET,Air,4
 Node,119,OFFICE_OPEN_36_Z119_ADUOUTLET,Air,4
 Node,120,STORAGE_36_Z120_ADUOUTLET,Air,4
 Node,121,LOBBY_37_Z121_ADUOUTLET,Air,4
 Node,122,BREAK_ROOM_37_Z122_ADUOUTLET,Air,4
 Node,123,OFFICE_PRIVATE_37_Z123_ADUOUTLET,Air,4
 Node,124,STORAGE_37_Z124_ADUOUTLET,Air,4
 Node,125,LOBBY_38_Z125_ADUOUTLET,Air,4
 Node,126,BREAK_ROOM_38_Z126_ADUOUTLET,Air,4
 Node,127,MECHANICAL_38_Z127_ADUOUTLET,Air,4
 Node,128,OFFICE_PRIVATE_38_Z128_ADUOUTLET,Air,4
 Node,129,CONFERENCE_39_Z129_ADUOUTLET,Air,4
 Node,130,OFFICE_OPEN_40_Z130_ADUOUTLET,Air,4
 Node,131,OFFICE_PRIVATE_40_Z131_ADUOUTLET,Air,4
 Node,132,STORAGE_40_Z132_ADUOUTLET,Air,4
 Node,133,CONFERENCE_41_Z133_ADUOUTLET,Air,4
 Node,134,OFFICE_OPEN_41_Z134_ADUOUTLET,Air,4
 Node,135,OFFICE_PRIVATE_41_Z135_ADUOUTLET,Air,4
 Node,136,STORAGE_41_Z136_ADUOUTLET,Air,4
 Node,137,CONFERENCE_42_Z137_ADUOUTLET,Air,4
 Node,138,OFFICE_PRIVATE_42_Z138_ADUOUTLET,Air,4
 Node,139,LOBBY_44_Z139_ADUOUTLET,Air,4
 Node,140,CONFERENCE_44_Z140_ADUOUTLET,Air,4
 Node,141,LOBBY_45_Z141_ADUOUTLET,Air,4
 Node,142,CONFERENCE_45_Z142_ADUOUTLET,Air,4
 Node,143,OFFICE_OPEN_45_Z143_ADUOUTLET,Air,4
 Node,144,CONFERENCE_46_Z144_ADUOUTLET,Air,4
 Node,145,BREAK_ROOM_46_Z145_ADUOUTLET,Air,4
 Node,146,OFFICE_OPEN_46_Z146_ADUOUTLET,Air,4
 Node,147,OFFICE_PRIVATE_46_Z147_ADUOUTLET,Air,4
 Node,148,STORAGE_46_Z148_ADUOUTLET,Air,4
 Node,149,CONFERENCE_47_Z149_ADUOUTLET,Air,4
 Node,150,BREAK_ROOM_47_Z150_ADUOUTLET,Air,4
 Node,151,OFFICE_OPEN_47_Z151_ADUOUTLET,Air,4
 Node,152,OFFICE_PRIVATE_47_Z152_ADUOUTLET,Air,4
 Node,153,STORAGE_47_Z153_ADUOUTLET,Air,4
 Node,154,LOBBY_48_Z154_ADUOUTLET,Air,4
 Node,155,CONFERENCE_48_Z155_ADUOUTLET,Air,4
 Node,156,MECHANICAL_48_Z156_ADUOUTLET,Air,4
 Node,157,OFFICE_PRIVATE_48_Z157_ADUOUTLET,Air,4
 Node,158,CONFERENCE_49_Z158_ADUOUTLET,Air,4
 Node,159,OFFICE_PRIVATE_49_Z159_ADUOUTLET,Air,4
 Node,160,STORAGE_49_Z160_ADUOUTLET,Air,4
 Node,161,BREAK_ROOM_50_Z161_ADUOUTLET,Air,4
 Node,162,OFFICE_PRIVATE_50_Z162_ADUOUTLET,Air,4
 Node,163,OFFICE_PRIVATE_51_Z163_ADUOUTLET,Air,4
 Node,164,STORAGE_51_Z164_ADUOUTLET,Air,4
 Node,165,BREAK_ROOM_52_Z165_ADUOUTLET,Air,4
 Node,166,MECHANICAL_52_Z166_ADUOUTLET,Air,4
 Node,167,STORAGE_52_Z167_ADUOUTLET,Air,4
 Node,168,BREAK_ROOM_53_Z168_ADUOUTLET,Air,4
 Node,169,MECHANICAL_53_Z169_ADUOUTLET,Air,4
 Node,170,OFFICE_OPEN_53_Z170_ADUOUTLET,Air,4
 Node,171,STORAGE_53_Z171_ADUOUTLET,Air,4
 Node,172,LOBBY_54_Z172_ADUOUTLET,Air,4
 Node,173,OFFICE_PRIVATE_54_Z173_ADUOUTLET,Air,4
 Node,174,STORAGE_54_Z174_ADUOUTLET,Air,4
 Node,175,LOBBY_55_Z175_ADUOUTLET,Air,4
 Node,176,MECHANICAL_55_Z176_ADUOUTLET,Air,4
 Node,177,OFFICE_OPEN_55_Z177_ADUOUTLET,Air,4
 Node,178,OFFICE_PRIVATE_55_Z178_ADUOUTLET,Air,4
 Node,179,STORAGE_55_Z179_ADUOUTLET,Air,4
 Node,180,LOBBY_56_Z180_ADUOUTLET,Air,4
 Node,181,MECHANICAL_56_Z181_ADUOUTLET,Air,4
 Node,182,OFFICE_PRIVATE_56_Z182_ADUOUTLET,Air,4
 Node,183,STORAGE_56_Z183_ADUOUTLET,Air,4
 Node,184,CONFERENCE_57_Z184_ADUOUTLET,Air,4
 Node,185,BREAK_ROOM_57_Z185_ADUOUTLET,Air,4
 Node,186,OFFICE_PRIVATE_57_Z186_ADUOUTLET,Air,4
 Node,187,STORAGE_57_Z187_ADUOUTLET,Air,4
 Node,188,CONFERENCE_58_Z188_ADUOUTLET,Air,4
 Node,189,MECHANICAL_58_Z189_ADUOUTLET,Air,4
 Node,190,CONFERENCE_59_Z190_ADUOUTLET,Air,4
 Node,191,STORAGE_59_Z191_ADUOUTLET,Air,4
 Node,192,BREAK_ROOM_60_Z192_ADUOUTLET,Air,4
 Node,193,MECHANICAL_60_Z193_ADUOUTLET,Air,4
 Node,194,OFFICE_OPEN_60_Z194_ADUOUTLET,Air,4
 Node,195,STORAGE_60_Z195_ADUOUTLET,Air,4
 Node,196,CONFERENCE_61_Z196_ADUOUTLET,Air,4
 Node,197,MECHANICAL_61_Z197_ADUOUTLET,Air,4
 Node,198,OFFICE_PRIVATE_61_Z198_ADUOUTLET,Air,4
 Node,199,LOBBY_62_Z199_ADUOUTLET,Air,4
 Node,200,MECHANICAL_62_Z200_ADUOUTLET,Air,4
 Node,201,LOBBY_63_Z201_ADUOUTLET,Air,4
 Node,202,CONFERENCE_63_Z202_ADUOUTLET,Air,4
 Node,203,LOBBY_64_Z203_ADUOUTLET,Air,4
 Node,204,BREAK_ROOM_64_Z204_ADUOUTLET,Air,4
 Node,205,MECHANICAL_64_Z205_ADUOUTLET,Air,4
 Node,206,STORAGE_64_Z206_ADUOUTLET,Air,4
 Node,207,LOBBY_65_Z207_ADUOUTLET,Air,4
 Node,208,OFFICE_PRIVATE_65_Z208_ADUOUTLET,Air,4
 Node,209,MECHANICAL_66_Z209_ADUOUTLET,Air,4
 Node,210,CONFERENCE_67_Z210_ADUOUTLET,Air,4
 Node,211,BREAK_ROOM_67_Z211_ADUOUTLET,Air,4
 Node,212,MECHANICAL_67_Z212_ADUOUTLET,Air,4
 Node,213,OFFICE_OPEN_67_Z213_ADUOUTLET,Air,4
 Node,214,OFFICE_PRIVATE_67_Z214_ADUOUTLET,Air,4
 Node,215,CONFERENCE_68_Z215_ADUOUTLET,Air,4
 Node,216,BREAK_ROOM_68_Z216_ADUOUTLET,Air,4
 Node,217,OFFICE_OPEN_68_Z217_ADUOUTLET,Air,4
 Node,218,OFFICE_PRIVATE_68_Z218_ADUOUTLET,Air,4
 Node,219,LOBBY_69_Z219_ADUOUTLET,Air,4
 Node,220,MECHANICAL_69_Z220_ADUOUTLET,Air,4
 Node,221,OFFICE_OPEN_69_Z221_ADUOUTLET,Air,4
 Node,222,OFFICE_PRIVATE_69_Z222_ADUOUTLET,Air,4
 Node,223,LOBBY_70_Z223_ADUOUTLET,Air,4
 Node,224,BREAK_ROOM_70_Z224_ADUOUTLET,Air,4
 Node,225,MECHANICAL_70_Z225_ADUOUTLET,Air,4
 Node,226,OFFICE_PRIVATE_70_Z226_ADUOUTLET,Air,4
 Node,227,MECHANICAL_71_Z227_ADUOUTLET,Air,4
 Node,228,STORAGE_71_Z228_ADUOUTLET,Air,4
 Node,229,LOBBY_72_Z229_ADUOUTLET,Air,4
 Node,230,BREAK_ROOM_72_Z230_ADUOUTLET,Air,4
 Node,231,OFFICE_PRIVATE_72_Z231_ADUOUTLET,Air,4
 Node,232,LOBBY_73_Z232_ADUOUTLET,Air,4
 Node,233,CONFERENCE_73_Z233_ADUOUTLET,Air,4
 Node,234,MECHANICAL_73_Z234_ADUOUTLET,Air,4
 Node,235,STORAGE_73_Z235_ADUOUTLET,Air,4
 Node,236,LOBBY_74_Z236_ADUOUTLET,Air,4
 Node,237,OFFICE_PRIVATE_74_Z237_ADUOUTLET,Air,4
 Node,238,LOBBY_76_Z238_ADUOUTLET,Air,4
 Node,239,OFFICE_OPEN_76_Z239_ADUOUTLET,Air,4
 Node,240,OFFICE_PRIVATE_76_Z240_ADUOUTLET,Air,4
 Node,241,STORAGE_76_Z241_ADUOUTLET,Air,4
 Node,242,MECHANICAL_77_Z242_ADUOUTLET,Air,4
 Node,243,OFFICE_OPEN_77_Z243_ADUOUTLET,Air,4
 Node,244,OFFICE_PRIVATE_77_Z244_ADUOUTLET,Air,4
 Node,245,OFFICE_PRIVATE_78_Z245_ADUOUTLET,Air,4
 Node,246,CONFERENCE_79_Z246_ADUOUTLET,Air,4
 Node,247,MECHANICAL_79_Z247_ADUOUTLET,Air,4
 Node,248,OFFICE_PRIVATE_79_Z248_ADUOUTLET,Air,4
 Node,249,LOBBY_80_Z249_ADUOUTLET,Air,4
 Node,250,MECHANICAL_80_Z250_ADUOUTLET,Air,4
 Node,251,MECHANICAL_81_Z251_ADUOUTLET,Air,4
 Node,252,STORAGE_81_Z252_ADUOUTLET,Air,4
 Node,253,CONFERENCE_82_Z253_ADUOUTLET,Air,4
 Node,254,MECHANICAL_82_Z254_ADUOUTLET,Air,4
 Node,255,STORAGE_82_Z255_ADUOUTLET,Air,4
 Node,256,LOBBY_83_Z256_ADUOUTLET,Air,4
 Node,257,BREAK_ROOM_84_Z257_ADUOUTLET,Air,4
 Node,258,OFFICE_PRIVATE_84_Z258_ADUOUTLET,Air,4
 Node,259,STORAGE_84_Z259_ADUOUTLET,Air,4
 Node,260,LOBBY_85_Z260_ADUOUTLET,Air,4
 Node,261,BREAK_ROOM_85_Z261_ADUOUTLET,Air,4
 Node,262,MECHANICAL_85_Z262_ADUOUTLET,Air,4
 Node,263,OFFICE_PRIVATE_85_Z263_ADUOUTLET,Air,4
 Node,264,STORAGE_85_Z264_ADUOUTLET,Air,4
 Node,265,LOBBY_86_Z265_ADUOUTLET,Air,4
 Node,266,MECHANICAL_86_Z266_ADUOUTLET,Air,4
 Node,267,OFFICE_OPEN_86_Z267_ADUOUTLET,Air,4
 Node,268,OFFICE_PRIVATE_86_Z268_ADUOUTLET,Air,4
 Node,269,STORAGE_86_Z269_ADUOUTLET,Air,4
 Node,270,CONFERENCE_87_Z270_ADUOUTLET,Air,4
 Node,271,MECHANICAL_87_Z271_ADUOUTLET,Air,4
 Node,272,OFFICE_OPEN_87_Z272_ADUOUTLET,Air,4
 Node,273,LOBBY_88_Z273_ADUOUTLET,Air,4
 Node,274,CONFERENCE_88_Z274_ADUOUTLET,Air,4
 Node,275,OFFICE_PRIVATE_88_Z275_ADUOUTLET,Air,4
 Node,276,STORAGE_88_Z276_ADUOUTLET,Air,4
 Node,277,CONFERENCE_89_Z277_ADUOUTLET,Air,4
 Node,278,BREAK_ROOM_89_Z278_ADUOUTLET,Air,4
 Node,279,MECHANICAL_89_Z279_ADUOUTLET,Air,4
 Node,280,OFFICE_OPEN_89_Z280_ADUOUTLET,Air,4
 Node,281,OFFICE_PRIVATE_89_Z281_ADUOUTLET,Air,4
 Node,282,STORAGE_89_Z282_ADUOUTLET,Air,4
 Node,283,CONFERENCE_90_Z283_ADUOUTLET,Air,4
 Node,284,OFFICE_OPEN_90_Z284_ADUOUTLET,Air,4
 Node,285,STORAGE_90_Z285_ADUOUTLET,Air,4
 Node,286,LOBBY_91_Z286_ADUOUTLET,Air,4
 Node,287,CONFERENCE_91_Z287_ADUOUTLET,Air,4
 Node,288,MECHANICAL_91_Z288_ADUOUTLET,Air,4
 Node,289,STORAGE_91_Z289_ADUOUTLET,Air,4
 Node,290,LOBBY_92_Z290_ADUOUTLET,Air,4
 Node,291,CONFERENCE_92_Z291_ADUOUTLET,Air,4
 Node,292,OFFICE_PRIVATE_92_Z292_ADUOUTLET,Air,4
 Node,293,MECHANICAL_93_Z293_ADUOUTLET,Air,4
 Node,294,OFFICE_PRIVATE_93_Z294_ADUOUTLET,Air,4
 Node,295,LOBBY_94_Z295_ADUOUTLET,Air,4
 Node,296,BREAK_ROOM_94_Z296_ADUOUTLET,Air,4
 Node,297,OFFICE_OPEN_94_Z297_ADUOUTLET,Air,4
 Node,298,OFFICE_PRIVATE_94_Z298_ADUOUTLET,Air,4
 Node,299,LOBBY_95_Z299_ADUOUTLET,Air,4
 Node,300,CONFERENCE_95_Z300_ADUOUTLET,Air,4
 Node,301,BREAK_ROOM_95_Z301_ADUOUTLET,Air,4
 Node,302,MECHANICAL_95_Z302_ADUOUTLET,Air,4
 Node,303,OFFICE_OPEN_95_Z303_ADUOUTLET,Air,4
 Node,304,STORAGE_95_Z304_ADUOUTLET,Air,4
 Node,305,LOBBY_96_Z305_ADUOUTLET,Air,4
 Node,306,BREAK_ROOM_96_Z306_ADUOUTLET,Air,4
 Node,307,MECHANICAL_96_Z307_ADUOUTLET,Air,4
 Node,308,OFFICE_PRIVATE_96_Z308_ADUOUTLET,Air,4
 Node,309,BREAK_ROOM_97_Z309_ADUOUTLET,Air,4
 Node,310,OFFICE_PRIVATE_97_Z310_ADUOUTLET,Air,4
 Node,311,STORAGE_97_Z311_ADUOUTLET,Air,4
 Node,312,CONFERENCE_0_Z1_SUPPLYINLET,Air,3
 Node,313,CONFERENCE_0_Z1_COOLC-HEATCNODE,Air,6
 Node,314,CONFERENCE_0_Z1_HEATC-FANNODE,Air,5
 Node,315,CONFERENCE_0_Z1_SUPPLYEQUIPMENTOUTLETNODE,Air,3
 Node,316,BREAK_ROOM_0_Z2_SUPPLYINLET,Air,3
 Node,317,BREAK_ROOM_0_Z2_COOLC-HEATCNODE,Air,6
 Node,318,BREAK_ROOM_0_Z2_HEATC-FANNODE,Air,5
 Node,319,BREAK_ROOM_0_Z2_SUPPLYEQUIPMENTOUTLETNODE,Air,3
 Node,320,STORAGE_0_Z3_SUPPLYINLET,Air,3
 Node,321,STORAGE_0_Z3_COOLC-HEATCNODE,Air,6
 Node,322,STORAGE_0_Z3_HEATC-FANNODE,Air,5
 Node,323,STORAGE_0_Z3_SUPPLYEQUIPMENTOUTLETNODE,Air,3
 Node,324,LOBBY_1_Z4_SUPPLYINLET,Air,3
 Node,325,LOBBY_1_Z4_COOLC-HEATCNODE,Air,6
 Node,326,LOBBY_1_Z4_HEATC-FANNODE,Air,5
 Node,327,LOBBY_1_Z4_SUPPLYEQUIPMENTOUTLETNODE,Air,3
 Node,328,BREAK_ROOM_1_Z5_SUPPLYINLET,Air,3
 Node,329,BREAK_ROOM_1_Z5_COOLC-HEATCNODE,Air,6
 Node,330,BREAK_ROOM_1_Z5_HEATC-FANNODE,Air,5
 Node,331,BREAK_ROOM_1_Z5_SUPPLYEQUIPMENTOUTLETNODE,Air,3
 Node,332,OFFICE_OPEN_1_Z6_SUPPLYINLET,Air,3
 Node,333,OFFICE_OPEN_1_Z6_COOLC-HEATCNODE,Air,6
 Node,334,OFFICE_OPEN_1_Z6_HEATC-FANNODE,Air,5
 Node,335,OFFICE_OPEN_1_Z6_SUPPLYEQUIPMENTOUTLETNODE,Air,3
 Node,336,OFFICE_PRIVATE_1_Z7_SUPPLYINLET,Air,3
 Node,337,OFFICE_PRIVATE_1_Z7_COOLC-HEATCNODE,Air,6
 Node,338,OFFICE_PRIVATE_1_Z7_HEATC-FANNODE,Air,5
 Node,339,OFFICE_PRIVATE_1_Z7_SUPPLYEQUIPMENTOUTLETNODE,Air,3
 Node,340,STORAGE_1_Z8_SUPPLYINLET,Air,3
 Node,341,STORAGE_1_Z8_COOLC-HEATCNODE,Air,6
 Node,342,STORAGE_1_Z8_HEATC-FANNODE,Air,5
 Node,343,STORAGE_1_Z8_SUPPLYEQUIPMENTOUTLETNODE,Air,3
 Node,344,STORAGE_2_Z9_SUPPLYINLET,Air,3
 Node,345,STORAGE_2_Z9_COOLC-HEATCNODE,Air,6
 Node,346,STORAGE_2_Z9_HEATC-FANNODE,Air,5
 Node,347,STORAGE_2_Z9_SUPPLYEQUIPMENTOUTLETNODE,Air,3
 Node,348,LOBBY_3_Z10_SUPPLYINLET,Air,3
 Node,349,LOBBY_3_Z10_COOLC-HEATCNODE,Air,6
 Node,350,LOBBY_3_Z10_HEATC-FANNODE,Air,5
 Node,351,LOBBY_3_Z10_SUPPLYEQUIPMENTOUTLETNODE,Air,3
 Node,352,BREAK_ROOM_3_Z11_SUPPLYINLET,Air,3
 Node,353,BREAK_ROOM_3_Z11_COOLC-HEATCNODE,Air,6
 Node,354,BREAK_ROOM_3_Z11_HEATC-FANNODE,Air,5
 Node,355,BREAK_ROOM_3_Z11_SUPPLYEQUIPMENTOUTLETNODE,Air,3
 Node,356,MECHANICAL_3_Z12_SUPPLYINLET,Air,3
 Node,357,MECHANICAL_3_Z12_COOLC-HEATCNODE,Air,6
 Node,358,MECHANICAL_3_Z12_HEATC-FANNODE,Air,5
 Node,359,MECHANICAL_3_Z12_SUPPLYEQUIPMENTOUTLETNODE,Air,3
 Node,360,OFFICE_PRIVATE_3_Z13_SUPPLYINLET,Air,3
 Node,361,OFFICE_PRIVATE_3_Z13_COOLC-HEATCNODE,Air,6
 Node,362,OFFICE_PRIVATE_3_Z13_HEATC-FANNODE,Air,5
 Node,363,OFFICE_PRIVATE_3_Z13_SUPPLYEQUIPMENTOUTLETNODE,Air,3
 Node,364,LOBBY_4_Z14_SUPPLYINLET,Air,3
 Node,365,LOBBY_4_Z14_COOLC-HEATCNODE,Air,6
 Node,366,LOBBY_4_Z14_HEATC-FANNODE,Air,5
 Node,367,LOBBY_4_Z14_SUPPLYEQUIPMENTOUTLETNODE,Air,3
 Node,368,BREAK_ROOM_4_Z15_SUPPLYINLET,Air,3
 Node,369,BREAK_ROOM_4_Z15_COOLC-HEATCNODE,Air,6
 Node,370,BREAK_ROOM_4_Z15_HEATC-FANNODE,Air,5
 Node,371,BREAK_ROOM_4_Z15_SUPPLYEQUIPMENTOUTLETNODE,Air,3
 Node,372,OFFICE_OPEN_4_Z16_SUPPLYINLET,Air,3
 Node,373,OFFICE_OPEN_4_Z16_COOLC-HEATCNODE,Air,6
 Node,374,OFFICE_OPEN_4_Z16_HEATC-FANNODE,Air,5
 Node,375,OFFICE_OPEN_4_Z16_SUPPLYEQUIPMENTOUTLETNODE,Air,3
 Node,376,OFFICE_PRIVATE_4_Z17_SUPPLYINLET,Air,3
 Node,377,OFFICE_PRIVATE_4_Z17_COOLC-HEATCNODE,Air,6
 Node,378,OFFICE_PRIVATE_4_Z17_HEATC-FANNODE,Air,5
 Node,379,OFFICE_PRIVATE_4_Z17_SUPPLYEQUIPMENTOUTLETNODE,Air,3
 Node,380,STORAGE_4_Z18_SUPPLYINLET,Air,3
 Node,381,STORAGE_4_Z18_COOLC-HEATCNODE,Air,6
 Node,382,STORAGE_4_Z18_HEATC-FANNODE,Air,5
 Node,383,STORAGE_4_Z18_SUPPLYEQUIPMENTOUTLETNODE,Air,3
 Node,384,LOBBY_5_Z19_SUPPLYINLET,Air,3
 Node,385,LOBBY_5_Z19_COOLC-HEATCNODE,Air,6
 Node,386,LOBBY_5_Z19_HEATC-FANNODE,Air,5
 Node,387,LOBBY_5_Z19_SUPPLYEQUIPMENTOUTLETNODE,Air,3
 Node,388,MECHANICAL_5_Z20_SUPPLYINLET,Air,3
 Node,389,MECHANICAL_5_Z20_COOLC-HEATCNODE,Air,6
 Node,390,MECHANICAL_5_Z20_HEATC-FANNODE,Air,5
 Node,391,MECHANICAL_5_Z20_SUPPLYEQUIPMENTOUTLETNODE,Air,3
 Node,392,OFFICE_OPEN_5_Z21_SUPPLYINLET,Air,3
 Node,393,OFFICE_OPEN_5_Z21_COOLC-HEATCNODE,Air,6
 Node,394,OFFICE_OPEN_5_Z21_HEATC-FANNODE,Air,5
 Node,395,OFFICE_OPEN_5_Z21_SUPPLYEQUIPMENTOUTLETNODE,Air,3
 Node,396,BREAK_ROOM_6_Z22_SUPPLYINLET,Air,3
 Node,397,BREAK_ROOM_6_Z22_COOLC-HEATCNODE,Air,6
 Node,398,BREAK_ROOM_6_Z22_HEATC-FANNODE,Air,5
 Node,399,BREAK_ROOM_6_Z22_SUPPLYEQUIPMENTOUTLETNODE,Air,3
 Node,400,STORAGE_6_Z23_SUPPLYINLET,Air,3
 Node,401,STORAGE_6_Z23_COOLC-HEATCNODE,Air,6
 Node,402,STORAGE_6_Z23_HEATC-FANNODE,Air,5
 Node,403,STORAGE_6_Z23_SUPPLYEQUIPMENTOUTLETNODE,Air,3
 Node,404,LOBBY_7_Z24_SUPPLYINLET,Air,3
 Node,405,LOBBY_7_Z24_COOLC-HEATCNODE,Air,6
 Node,406,LOBBY_7_Z24_HEATC-FANNODE,Air,5
 Node,407,LOBBY_7_Z24_SUPPLYEQUIPMENTOUTLETNODE,Air,3
 Node,408,CONFERENCE_7_Z25_SUPPLYINLET,Air,3
 Node,409,CONFERENCE_7_Z25_COOLC-HEATCNODE,Air,6
 Node,410,CONFERENCE_7_Z25_HEATC-FANNODE,Air,5
 Node,411,CONFERENCE_7_Z25_SUPPLYEQUIPMENTOUTLETNODE,Air,3
 Node,412,MECHANICAL_7_Z26_SUPPLYINLET,Air,3
 Node,413,MECHANICAL_7_Z26_COOLC-HEATCNODE,Air,6
 Node,414,MECHANICAL_7_Z26_HEATC-FANNODE,Air,5
 Node,415,MECHANICAL_7_Z26_SUPPLYEQUIPMENTOUTLETNODE,Air,3
 Node,416,OFFICE_PRIVATE_7_Z27_SUPPLYINLET,Air,3
 Node,417,OFFICE_PRIVATE_7_Z27_COOLC-HEATCNODE,Air,6
 Node,418,OFFICE_PRIVATE_7_Z27_HEATC-FANNODE,Air,5
 Node,419,OFFICE_PRIVATE_7_Z27_SUPPLYEQUIPMENTOUTLETNODE,Air,3
 Node,420,STORAGE_7_Z28_SUPPLYINLET,Air,3
 Node,421,STORAGE_7_Z28_COOLC-HEATCNODE,Air,6
 Node,422,STORAGE_7_Z28_HEATC-FANNODE,Air,5
 Node,423,STORAGE_7_Z28_SUPPLYEQUIPMENTOUTLETNODE,Air,3
 Node,424,LOBBY_8_Z29_SUPPLYINLET,Air,3
 Node,425,LOBBY_8_Z29_COOLC-HEATCNODE,Air,6
 Node,426,LOBBY_8_Z29_HEATC-FANNODE,Air,5
 Node,427,LOBBY_8_Z29_SUPPLYEQUIPMENTOUTLETNODE,Air,3
 Node,428,BREAK_ROOM_8_Z30_SUPPLYINLET,Air,3
 Node,429,BREAK_ROOM_8_Z30_COOLC-HEATCNODE,Air,6
 Node,430,BREAK_ROOM_8_Z30_HEATC-FANNODE,Air,5
 Node,431,BREAK_ROOM_8_Z30_SUPPLYEQUIPMENTOUTLETNODE,Air,3
 Node,432,MECHANICAL_8_Z31_SUPPLYINLET,Air,3
 Node,433,MECHANICAL_8_Z31_COOLC-HEATCNODE,Air,6
 Node,434,MECHANICAL_8_Z31_HEATC-FANNODE,Air,5
 Node,435,MECHANICAL_8_Z31_SUPPLYEQUIPMENTOUTLETNODE,Air,3
 Node,436,OFFICE_OPEN_8_Z32_SUPPLYINLET,Air,3
 Node,437,OFFICE_OPEN_8_Z32_COOLC-HEATCNODE,Air,6
 Node,438,OFFICE_OPEN_8_Z32_HEATC-FANNODE,Air,5
 Node,439,OFFICE_OPEN_8_Z32_SUPPLYEQUIPMENTOUTLETNODE,Air,3
 Node,440,BREAK_ROOM_9_Z33_SUPPLYINLET,Air,3
 Node,441,BREAK_ROOM_9_Z33_COOLC-HEATCNODE,Air,6
 Node,442,BREAK_ROOM_9_Z33_HEATC-FANNODE,Air,5
 Node,443,BREAK_ROOM_9_Z33_SUPPLYEQUIPMENTOUTLETNODE,Air,3
 Node,444,OFFICE_PRIVATE_9_Z34_SUPPLYINLET,Air,3
 Node,445,OFFICE_PRIVATE_9_Z34_COOLC-HEATCNODE,Air,6
 Node,446,OFFICE_PRIVATE_9_Z34_HEATC-FANNODE,Air,5
 Node,447,OFFICE_PRIVATE_9_Z34_SUPPLYEQUIPMENTOUTLETNODE,Air,3
 Node,448,BREAK_ROOM_10_Z35_SUPPLYINLET,Air,3
 Node,449,BREAK_ROOM_10_Z35_COOLC-HEATCNODE,Air,6
 Node,450,BREAK_ROOM_10_Z35_HEATC-FANNODE,Air,5
 Node,451,BREAK_ROOM_10_Z35_SUPPLYEQUIPMENTOUTLETNODE,Air,3
 Node,452,MECHANICAL_10_Z36_SUPPLYINLET,Air,3
 Node,453,MECHANICAL_10_Z36_COOLC-HEATCNODE,Air,6
 Node,454,MECHANICAL_10_Z36_HEATC-FANNODE,Air,5
 Node,455,MECHANICAL_10_Z36_SUPPLYEQUIPMENTOUTLETNODE,Air,3
 Node,456,LOBBY_11_Z37_SUPPLYINLET,Air,3
 Node,457,LOBBY_11_Z37_COOLC-HEATCNODE,Air,6
 Node,458,LOBBY_11_Z37_HEATC-FANNODE,Air,5
 Node,459,LOBBY_11_Z37_SUPPLYEQUIPMENTOUTLETNODE,Air,3
 Node,460,CONFERENCE_11_Z38_SUPPLYINLET,Air,3
 Node,461,CONFERENCE_11_Z38_COOLC-HEATCNODE,Air,6
 Node,462,CONFERENCE_11_Z38_HEATC-FANNODE,Air,5
 Node,463,CONFERENCE_11_Z38_SUPPLYEQUIPMENTOUTLETNODE,Air,3
 Node,464,BREAK_ROOM_11_Z39_SUPPLYINLET,Air,3
 Node,465,BREAK_ROOM_11_Z39_COOLC-HEATCNODE,Air,6
 Node,466,BREAK_ROOM_11_Z39_HEATC-FANNODE,Air,5
 Node,467,BREAK_ROOM_11_Z39_SUPPLYEQUIPMENTOUTLETNODE,Air,3
 Node,468,OFFICE_OPEN_11_Z40_SUPPLYINLET,Air,3
 Node,469,OFFICE_OPEN_11_Z40_COOLC-HEATCNODE,Air,6
 Node,470,OFFICE_OPEN_11_Z40_HEATC-FANNODE,Air,5
 Node,471,OFFICE_OPEN_11_Z40_SUPPLYEQUIPMENTOUTLETNODE,Air,3
 Node,472,LOBBY_12_Z41_SUPPLYINLET,Air,3
 Node,473,LOBBY_12_Z41_COOLC-HEATCNODE,Air,6
 Node,474,LOBBY_12_Z41_HEATC-FANNODE,Air,5
 Node,475,LOBBY_12_Z41_SUPPLYEQUIPMENTOUTLETNODE,Air,3
 Node,476,OFFICE_PRIVATE_12_Z42_SUPPLYINLET,Air,3
 Node,477,OFFICE_PRIVATE_12_Z42_COOLC-HEATCNODE,Air,6
 Node,478,OFFICE_PRIVATE_12_Z42_HEATC-FANNODE,Air,5
 Node,479,OFFICE_PRIVATE_12_Z42_SUPPLYEQUIPMENTOUTLETNODE,Air,3
 Node,480,STORAGE_12_Z43_SUPPLYINLET,Air,3
 Node,481,STORAGE_12_Z43_COOLC-HEATCNODE,Air,6
 Node,482,STORAGE_12_Z43_HEATC-FANNODE,Air,5
 Node,483,STORAGE_12_Z43_SUPPLYEQUIPMENTOUTLETNODE,Air,3
 Node,484,LOBBY_13_Z44_SUPPLYINLET,Air,3
 Node,485,LOBBY_13_Z44_COOLC-HEATCNODE,Air,6
 Node,486,LOBBY_13_Z44_HEATC-FANNODE,Air,5
 Node,487,LOBBY_13_Z44_SUPPLYEQUIPMENTOUTLETNODE,Air,3
 Node,488,CONFERENCE_13_Z45_SUPPLYINLET,Air,3
 Node,489,CONFERENCE_13_Z45_COOLC-HEATCNODE,Air,6
 Node,490,CONFERENCE_13_Z45_HEATC-FANNODE,Air,5
 Node,491,CONFERENCE_13_Z45_SUPPLYEQUIPMENTOUTLETNODE,Air,3
 Node,492,BREAK_ROOM_13_Z46_SUPPLYINLET,Air,3
 Node,493,BREAK_ROOM_13_Z46_COOLC-HEATCNODE,Air,6
 Node,494,BREAK_ROOM_13_Z46_HEATC-FANNODE,Air,5
 Node,495,BREAK_ROOM_13_Z46_SUPPLYEQUIPMENTOUTLETNODE,Air,3
 Node,496,MECHANICAL_13_Z47_SUPPLYINLET,Air,3
 Node,497,MECHANICAL_13_Z47_COOLC-HEATCNODE,Air,6
 Node,498,MECHANICAL_13_Z47_HEATC-FANNODE,Air,5
 Node,499,MECHANICAL_13_Z47_SUPPLYEQUIPMENTOUTLETNODE,Air,3
 Node,500,OFFICE_PRIVATE_13_Z48_SUPPLYINLET,Air,3
 Node,501,OFFICE_PRIVATE_13_Z48_COOLC-HEATCNODE,Air,6
 Node,502,OFFICE_PRIVATE_13_Z48_HEATC-FANNODE,Air,5
 Node,503,OFFICE_PRIVATE_13_Z48_SUPPLYEQUIPMENTOUTLETNODE,Air,3
 Node,504,STORAGE_13_Z49_SUPPLYINLET,Air,3
 Node,505,STORAGE_13_Z49_COOLC-HEATCNODE,Air,6
 Node,506,STORAGE_13_Z49_HEATC-FANNODE,Air,5
 Node,507,STORAGE_13_Z49_SUPPLYEQUIPMENTOUTLETNODE,Air,3
 Node,508,LOBBY_14_Z50_SUPPLYINLET,Air,3
 Node,509,LOBBY_14_Z50_COOLC-HEATCNODE,Air,6
 Node,510,LOBBY_14_Z50_HEATC-FANNODE,Air,5
 Node,511,LOBBY_14_Z50_SUPPLYEQUIPMENTOUTLETNODE,Air,3
 Node,512,LOBBY_16_Z51_SUPPLYINLET,Air,3
 Node,513,LOBBY_16_Z51_COOLC-HEATCNODE,Air,6
 Node,514,LOBBY_16_Z51_HEATC-FANNODE,Air,5
 Node,515,LOBBY_16_Z51_SUPPLYEQUIPMENTOUTLETNODE,Air,3
 Node,516,CONFERENCE_16_Z52_SUPPLYINLET,Air,3
 Node,517,CONFERENCE_16_Z52_COOLC-HEATCNODE,Air,6
 Node,518,CONFERENCE_16_Z52_HEATC-FANNODE,Air,5
 Node,519,CONFERENCE_16_Z52_SUPPLYEQUIPMENTOUTLETNODE,Air,3
 Node,520,MECHANICAL_16_Z53_SUPPLYINLET,Air,3
 Node,521,MECHANICAL_16_Z53_COOLC-HEATCNODE,Air,6
 Node,522,MECHANICAL_16_Z53_HEATC-FANNODE,Air,5
 Node,523,MECHANICAL_16_Z53_SUPPLYEQUIPMENTOUTLETNODE,Air,3
 Node,524,OFFICE_OPEN_16_Z54_SUPPLYINLET,Air,3
 Node,525,OFFICE_OPEN_16_Z54_COOLC-HEATCNODE,Air,6
 Node,526,OFFICE_OPEN_16_Z54_HEATC-FANNODE,Air,5
 Node,527,OFFICE_OPEN_16_Z54_SUPPLYEQUIPMENTOUTLETNODE,Air,3
 Node,528,OFFICE_PRIVATE_16_Z55_SUPPLYINLET,Air,3
 Node,529,OFFICE_PRIVATE_16_Z55_COOLC-HEATCNODE,Air,6
 Node,530,OFFICE_PRIVATE_16_Z55_HEATC-FANNODE,Air,5
 Node,531,OFFICE_PRIVATE_16_Z55_SUPPLYEQUIPMENTOUTLETNODE,Air,3
 Node,532,OFFICE_OPEN_17_Z56_SUPPLYINLET,Air,3
 Node,533,OFFICE_OPEN_17_Z56_COOLC-HEATCNODE,Air,6
 Node,534,OFFICE_OPEN_17_Z56_HEATC-FANNODE,Air,5
 Node,535,OFFICE_OPEN_17_Z56_SUPPLYEQUIPMENTOUTLETNODE,Air,3
 Node,536,LOBBY_18_Z57_SUPPLYINLET,Air,3
 Node,537,LOBBY_18_Z57_COOLC-HEATCNODE,Air,6
 Node,538,LOBBY_18_Z57_HEATC-FANNODE,Air,5
 Node,539,LOBBY_18_Z57_SUPPLYEQUIPMENTOUTLETNODE,Air,3
 Node,540,CONFERENCE_18_Z58_SUPPLYINLET,Air,3
 Node,541,CONFERENCE_18_Z58_COOLC-HEATCNODE,Air,6
 Node,542,CONFERENCE_18_Z58_HEATC-FANNODE,Air,5
 Node,543,CONFERENCE_18_Z58_SUPPLYEQUIPMENTOUTLETNODE,Air,3
 Node,544,BREAK_ROOM_18_Z59_SUPPLYINLET,Air,3
 Node,545,BREAK_ROOM_18_Z59_COOLC-HEATCNODE,Air,6
 Node,546,BREAK_ROOM_18_Z59_HEATC-FANNODE,Air,5
 Node,547,BREAK_ROOM_18_Z59_SUPPLYEQUIPMENTOUTLETNODE,Air,3
 Node,548,MECHANICAL_18_Z60_SUPPLYINLET,Air,3
 Node,549,MECHANICAL_18_Z60_COOLC-HEATCNODE,Air,6
 Node,550,MECHANICAL_18_Z60_HEATC-FANNODE,Air,5
 Node,551,MECHANICAL_18_Z60_SUPPLYEQUIPMENTOUTLETNODE,Air,3
 Node,552,LOBBY_19_Z61_SUPPLYINLET,Air,3
 Node,553,LOBBY_19_Z61_COOLC-HEATCNODE,Air,6
 Node,554,LOBBY_19_Z61_HEATC-FANNODE,Air,5
 Node,555,LOBBY_19_Z61_SUPPLYEQUIPMENTOUTLETNODE,Air,3
 Node,556,BREAK_ROOM_19_Z62_SUPPLYINLET,Air,3
 Node,557,BREAK_ROOM_19_Z62_COOLC-HEATCNODE,Air,6
 Node,558,BREAK_ROOM_19_Z62_HEATC-FANNODE,Air,5
 Node,559,BREAK_ROOM_19_Z62_SUPPLYEQUIPMENTOUTLETNODE,Air,3
 Node,560,OFFICE_PRIVATE_19_Z63_SUPPLYINLET,Air,3
 Node,561,OFFICE_PRIVATE_19_Z63_COOLC-HEATCNODE,Air,6
 Node,562,OFFICE_PRIVATE_19_Z63_HEATC-FANNODE,Air,5
 Node,563,OFFICE_PRIVATE_19_Z63_SUPPLYEQUIPMENTOUTLETNODE,Air,3
 Node,564,STORAGE_19_Z64_SUPPLYINLET,Air,3
 Node,565,STORAGE_19_Z64_COOLC-HEATCNODE,Air,6
 Node,566,STORAGE_19_Z64_HEATC-FANNODE,Air,5
 Node,567,STORAGE_19_Z64_SUPPLYEQUIPMENTOUTLETNODE,Air,3
 Node,568,BREAK_ROOM_21_Z65_SUPPLYINLET,Air,3
 Node,569,BREAK_ROOM_21_Z65_COOLC-HEATCNODE,Air,6
 Node,570,BREAK_ROOM_21_Z65_HEATC-FANNODE,Air,5
 Node,571,BREAK_ROOM_21_Z65_SUPPLYEQUIPMENTOUTLETNODE,Air,3
 Node,572,OFFICE_PRIVATE_21_Z66_SUPPLYINLET,Air,3
 Node,573,OFFICE_PRIVATE_21_Z66_COOLC-HEATCNODE,Air,6
 Node,574,OFFICE_PRIVATE_21_Z66_HEATC-FANNODE,Air,5
 Node,575,OFFICE_PRIVATE_21_Z66_SUPPLYEQUIPMENTOUTLETNODE,Air,3
 Node,576,STORAGE_21_Z67_SUPPLYINLET,Air,3
 Node,577,STORAGE_21_Z67_COOLC-HEATCNODE,Air,6
 Node,578,STORAGE_21_Z67_HEATC-FANNODE,Air,5
 Node,579,STORAGE_21_Z67_SUPPLYEQUIPMENTOUTLETNODE,Air,3
 Node,580,BREAK_ROOM_22_Z68_SUPPLYINLET,Air,3
 Node,581,BREAK_ROOM_22_Z68_COOLC-HEATCNODE,Air,6
 Node,582,BREAK_ROOM_22_Z68_HEATC-FANNODE,Air,5
 Node,583,BREAK_ROOM_22_Z68_SUPPLYEQUIPMENTOUTLETNODE,Air,3
 Node,584,STORAGE_22_Z69_SUPPLYINLET,Air,3
 Node,585,STORAGE_22_Z69_COOLC-HEATCNODE,Air,6
 Node,586,STORAGE_22_Z69_HEATC-FANNODE,Air,5
 Node,587,STORAGE_22_Z69_SUPPLYEQUIPMENTOUTLETNODE,Air,3
 Node,588,LOBBY_23_Z70_SUPPLYINLET,Air,3
 Node,589,LOBBY_23_Z70_COOLC-HEATCNODE,Air,6
 Node,590,LOBBY_23_Z70_HEATC-FANNODE,Air,5
 Node,591,LOBBY_23_Z70_SUPPLYEQUIPMENTOUTLETNODE,Air,3
 Node,592,CONFERENCE_23_Z71_SUPPLYINLET,Air,3
 Node,593,CONFERENCE_23_Z71_COOLC-HEATCNODE,Air,6
 Node,594,CONFERENCE_23_Z71_HEATC-FANNODE,Air,5
 Node,595,CONFERENCE_23_Z71_SUPPLYEQUIPMENTOUTLETNODE,Air,3
 Node,596,OFFICE_OPEN_23_Z72_SUPPLYINLET,Air,3
 Node,597,OFFICE_OPEN_23_Z72_COOLC-HEATCNODE,Air,6
 Node,598,OFFICE_OPEN_23_Z72_HEATC-FANNODE,Air,5
 Node,599,OFFICE_OPEN_23_Z72_SUPPLYEQUIPMENTOUTLETNODE,Air,3
 Node,600,OFFICE_PRIVATE_23_Z73_SUPPLYINLET,Air,3
 Node,601,OFFICE_PRIVATE_23_Z73_COOLC-HEATCNODE,Air,6
 Node,602,OFFICE_PRIVATE_23_Z73_HEATC-FANNODE,Air,5
 Node,603,OFFICE_PRIVATE_23_Z73_SUPPLYEQUIPMENTOUTLETNODE,Air,3
 Node,604,LOBBY_24_Z74_SUPPLYINLET,Air,3
 Node,605,LOBBY_24_Z74_COOLC-HEATCNODE,Air,6
 Node,606,LOBBY_24_Z74_HEATC-FANNODE,Air,5
 Node,607,LOBBY_24_Z74_SUPPLYEQUIPMENTOUTLETNODE,Air,3
 Node,608,CONFERENCE_24_Z75_SUPPLYINLET,Air,3
 Node,609,CONFERENCE_24_Z75_COOLC-HEATCNODE,Air,6
 Node,610,CONFERENCE_24_Z75_HEATC-FANNODE,Air,5
 Node,611,CONFERENCE_24_Z75_SUPPLYEQUIPMENTOUTLETNODE,Air,3
 Node,612,BREAK_ROOM_24_Z76_SUPPLYINLET,Air,3
 Node,613,BREAK_ROOM_24_Z76_COOLC-HEATCNODE,Air,6
 Node,614,BREAK_ROOM_24_Z76_HEATC-FANNODE,Air,5
 Node,615,BREAK_ROOM_24_Z76_SUPPLYEQUIPMENTOUTLETNODE,Air,3
 Node,616,OFFICE_OPEN_24_Z77_SUPPLYINLET,Air,3
 Node,617,OFFICE_OPEN_24_Z77_COOLC-HEATCNODE,Air,6
 Node,618,OFFICE_OPEN_24_Z77_HEATC-FANNODE,Air,5
 Node,619,OFFICE_OPEN_24_Z77_SUPPLYEQUIPMENTOUTLETNODE,Air,3
 Node,620,OFFICE_PRIVATE_24_Z78_SUPPLYINLET,Air,3
 Node,621,OFFICE_PRIVATE_24_Z78_COOLC-HEATCNODE,Air,6
 Node,622,OFFICE_PRIVATE_24_Z78_HEATC-FANNODE,Air,5
 Node,623,OFFICE_PRIVATE_24_Z78_SUPPLYEQUIPMENTOUTLETNODE,Air,3
 Node,624,STORAGE_24_Z79_SUPPLYINLET,Air,3
 Node,625,STORAGE_24_Z79_COOLC-HEATCNODE,Air,6
 Node,626,STORAGE_24_Z79_HEATC-FANNODE,Air,5
 Node,627,STORAGE_24_Z79_SUPPLYEQUIPMENTOUTLETNODE,Air,3
 Node,628,BREAK_ROOM_25_Z80_SUPPLYINLET,Air,3
 Node,629,BREAK_ROOM_25_Z80_COOLC-HEATCNODE,Air,6
 Node,630,BREAK_ROOM_25_Z80_HEATC-FANNODE,Air,5
 Node,631,BREAK_ROOM_25_Z80_SUPPLYEQUIPMENTOUTLETNODE,Air,3
 Node,632,MECHANICAL_25_Z81_SUPPLYINLET,Air,3
 Node,633,MECHANICAL_25_Z81_COOLC-HEATCNODE,Air,6
 Node,634,MECHANICAL_25_Z81_HEATC-FANNODE,Air,5
 Node,635,MECHANICAL_25_Z81_SUPPLYEQUIPMENTOUTLETNODE,Air,3
 Node,636,OFFICE_PRIVATE_25_Z82_SUPPLYINLET,Air,3
 Node,637,OFFICE_PRIVATE_25_Z82_COOLC-HEATCNODE,Air,6
 Node,638,OFFICE_PRIVATE_25_Z82_HEATC-FANNODE,Air,5
 Node,639,OFFICE_PRIVATE_25_Z82_SUPPLYEQUIPMENTOUTLETNODE,Air,3
 Node,640,LOBBY_26_Z83_SUPPLYINLET,Air,3
 Node,641,LOBBY_26_Z83_COOLC-HEATCNODE,Air,6
 Node,642,LOBBY_26_Z83_HEATC-FANNODE,Air,5
 Node,643,LOBBY_26_Z83_SUPPLYEQUIPMENTOUTLETNODE,Air,3
 Node,644,BREAK_ROOM_26_Z84_SUPPLYINLET,Air,3
 Node,645,BREAK_ROOM_26_Z84_COOLC-HEATCNODE,Air,6
 Node,646,BREAK_ROOM_26_Z84_HEATC-FANNODE,Air,5
 Node,647,BREAK_ROOM_26_Z84_SUPPLYEQUIPMENTOUTLETNODE,Air,3
 Node,648,OFFICE_OPEN_26_Z85_SUPPLYINLET,Air,3
 Node,649,OFFICE_OPEN_26_Z85_COOLC-HEATCNODE,Air,6
 Node,650,OFFICE_OPEN_26_Z85_HEATC-FANNODE,Air,5
 Node,651,OFFICE_OPEN_26_Z85_SUPPLYEQUIPMENTOUTLETNODE,Air,3
 Node,652,MECHANICAL_27_Z86_SUPPLYINLET,Air,3
 Node,653,MECHANICAL_27_Z86_COOLC-HEATCNODE,Air,6
 Node,654,MECHANICAL_27_Z86_HEATC-FANNODE,Air,5
 Node,655,MECHANICAL_27_Z86_SUPPLYEQUIPMENTOUTLETNODE,Air,3
 Node,656,OFFICE_PRIVATE_27_Z87_SUPPLYINLET,Air,3
 Node,657,OFFICE_PRIVATE_27_Z87_COOLC-HEATCNODE,Air,6
 Node,658,OFFICE_PRIVATE_27_Z87_HEATC-FANNODE,Air,5
 Node,659,OFFICE_PRIVATE_27_Z87_SUPPLYEQUIPMENTOUTLETNODE,Air,3
 Node,660,STORAGE_27_Z88_SUPPLYINLET,Air,3
 Node,661,STORAGE_27_Z88_COOLC-HEATCNODE,Air,6
 Node,662,STORAGE_27_Z88_HEATC-FANNODE,Air,5
 Node,663,STORAGE_27_Z88_SUPPLYEQUIPMENTOUTLETNODE,Air,3
 Node,664,CONFERENCE_28_Z89_SUPPLYINLET,Air,3
 Node,665,CONFERENCE_28_Z89_COOLC-HEATCNODE,Air,6
 Node,666,CONFERENCE_28_Z89_HEATC-FANNODE,Air,5
 Node,667,CONFERENCE_28_Z89_SUPPLYEQUIPMENTOUTLETNODE,Air,3
 Node,668,MECHANICAL_28_Z90_SUPPLYINLET,Air,3
 Node,669,MECHANICAL_28_Z90_COOLC-HEATCNODE,Air,6
 Node,670,MECHANICAL_28_Z90_HEATC-FANNODE,Air,5
 Node,671,MECHANICAL_28_Z90_SUPPLYEQUIPMENTOUTLETNODE,Air,3
 Node,672,OFFICE_OPEN_28_Z91_SUPPLYINLET,Air,3
 Node,673,OFFICE_OPEN_28_Z91_COOLC-HEATCNODE,Air,6
 Node,674,OFFICE_OPEN_28_Z91_HEATC-FANNODE,Air,5
 Node,675,OFFICE_OPEN_28_Z91_SUPPLYEQUIPMENTOUTLETNODE,Air,3
 Node,676,OFFICE_PRIVATE_28_Z92_SUPPLYINLET,Air,3
 Node,677,OFFICE_PRIVATE_28_Z92_COOLC-HEATCNODE,Air,6
 Node,678,OFFICE_PRIVATE_28_Z92_HEATC-FANNODE,Air,5
 Node,679,OFFICE_PRIVATE_28_Z92_SUPPLYEQUIPMENTOUTLETNODE,Air,3
 Node,680,STORAGE_28_Z93_SUPPLYINLET,Air,3
 Node,681,STORAGE_28_Z93_COOLC-HEATCNODE,Air,6
 Node,682,STORAGE_28_Z93_HEATC-FANNODE,Air,5
 Node,683,STORAGE_28_Z93_SUPPLYEQUIPMENTOUTLETNODE,Air,3
 Node,684,BREAK_ROOM_29_Z94_SUPPLYINLET,Air,3
 Node,685,BREAK_ROOM_29_Z94_COOLC-HEATCNODE,Air,6
 Node,686,BREAK_ROOM_29_Z94_HEATC-FANNODE,Air,5
 Node,687,BREAK_ROOM_29_Z94_SUPPLYEQUIPMENTOUTLETNODE,Air,3
 Node,688,MECHANICAL_29_Z95_SUPPLYINLET,Air,3
 Node,689,MECHANICAL_29_Z95_COOLC-HEATCNODE,Air,6
 Node,690,MECHANICAL_29_Z95_HEATC-FANNODE,Air,5
 Node,691,MECHANICAL_29_Z95_SUPPLYEQUIPMENTOUTLETNODE,Air,3
 Node,692,OFFICE_OPEN_29_Z96_SUPPLYINLET,Air,3
 Node,693,OFFICE_OPEN_29_Z96_COOLC-HEATCNODE,Air,6
 Node,694,OFFICE_OPEN_29_Z96_HEATC-FANNODE,Air,5
 Node,695,OFFICE_OPEN_29_Z96_SUPPLYEQUIPMENTOUTLETNODE,Air,3
 Node,696,OFFICE_PRIVATE_29_Z97_SUPPLYINLET,Air,3
 Node,697,OFFICE_PRIVATE_29_Z97_COOLC-HEATCNODE,Air,6
 Node,698,OFFICE_PRIVATE_29_Z97_HEATC-FANNODE,Air,5
 Node,699,OFFICE_PRIVATE_29_Z97_SUPPLYEQUIPMENTOUTLETNODE,Air,3
 Node,700,STORAGE_29_Z98_SUPPLYINLET,Air,3
 Node,701,STORAGE_29_Z98_COOLC-HEATCNODE,Air,6
 Node,702,STORAGE_29_Z98_HEATC-FANNODE,Air,5
 Node,703,STORAGE_29_Z98_SUPPLYEQUIPMENTOUTLETNODE,Air,3
 Node,704,CONFERENCE_30_Z99_SUPPLYINLET,Air,3
 Node,705,CONFERENCE_30_Z99_COOLC-HEATCNODE,Air,6
 Node,706,CONFERENCE_30_Z99_HEATC-FANNODE,Air,5
 Node,707,CONFERENCE_30_Z99_SUPPLYEQUIPMENTOUTLETNODE,Air,3
 Node,708,OFFICE_PRIVATE_30_Z100_SUPPLYINLET,Air,3
 Node,709,OFFICE_PRIVATE_30_Z100_COOLC-HEATCNODE,Air,6
 Node,710,OFFICE_PRIVATE_30_Z100_HEATC-FANNODE,Air,5
 Node,711,OFFICE_PRIVATE_30_Z100_SUPPLYEQUIPMENTOUTLETNODE,Air,3
 Node,712,OFFICE_OPEN_31_Z101_SUPPLYINLET,Air,3
 Node,713,OFFICE_OPEN_31_Z101_COOLC-HEATCNODE,Air,6
 Node,714,OFFICE_OPEN_31_Z101_HEATC-FANNODE,Air,5
 Node,715,OFFICE_OPEN_31_Z101_SUPPLYEQUIPMENTOUTLETNODE,Air,3
 Node,716,LOBBY_32_Z102_SUPPLYINLET,Air,3
 Node,717,LOBBY_32_Z102_COOLC-HEATCNODE,Air,6
 Node,718,LOBBY_32_Z102_HEATC-FANNODE,Air,5
 Node,719,LOBBY_32_Z102_SUPPLYEQUIPMENTOUTLETNODE,Air,3
 Node,720,OFFICE_PRIVATE_32_Z103_SUPPLYINLET,Air,3
 Node,721,OFFICE_PRIVATE_32_Z103_COOLC-HEATCNODE,Air,6
 Node,722,OFFICE_PRIVATE_32_Z103_HEATC-FANNODE,Air,5
 Node,723,OFFICE_PRIVATE_32_Z103_SUPPLYEQUIPMENTOUTLETNODE,Air,3
 Node,724,STORAGE_32_Z104_SUPPLYINLET,Air,3
 Node,725,STORAGE_32_Z104_COOLC-HEATCNODE,Air,6
 Node,726,STORAGE_32_Z104_HEATC-FANNODE,Air,5
 Node,727,STORAGE_32_Z104_SUPPLYEQUIPMENTOUTLETNODE,Air,3
 Node,728,OFFICE_OPEN_33_Z105_SUPPLYINLET,Air,3
 Node,729,OFFICE_OPEN_33_Z105_COOLC-HEATCNODE,Air,6
 Node,730,OFFICE_OPEN_33_Z105_HEATC-FANNODE,Air,5
 Node,731,OFFICE_OPEN_33_Z105_SUPPLYEQUIPMENTOUTLETNODE,Air,3
 Node,732,OFFICE_PRIVATE_33_Z106_SUPPLYINLET,Air,3
 Node,733,OFFICE_PRIVATE_33_Z106_COOLC-HEATCNODE,Air,6
 Node,734,OFFICE_PRIVATE_33_Z106_HEATC-FANNODE,Air,5
 Node,735,OFFICE_PRIVATE_33_Z106_SUPPLYEQUIPMENTOUTLETNODE,Air,3
 Node,736,STORAGE_33_Z107_SUPPLYINLET,Air,3
 Node,737,STORAGE_33_Z107_COOLC-HEATCNODE,Air,6
 Node,738,STORAGE_33_Z107_HEATC-FANNODE,Air,5
 Node,739,STORAGE_33_Z107_SUPPLYEQUIPMENTOUTLETNODE,Air,3
 Node,740,CONFERENCE_34_Z108_SUPPLYINLET,Air,3
 Node,741,CONFERENCE_34_Z108_COOLC-HEATCNODE,Air,6
 Node,742,CONFERENCE_34_Z108_HEATC-FANNODE,Air,5
 Node,743,CONFERENCE_34_Z108_SUPPLYEQUIPMENTOUTLETNODE,Air,3
 Node,744,BREAK_ROOM_34_Z109_SUPPLYINLET,Air,3
 Node,745,BREAK_ROOM_34_Z109_COOLC-HEATCNODE,Air,6
 Node,746,BREAK_ROOM_34_Z109_HEATC-FANNODE,Air,5
 Node,747,BREAK_ROOM_34_Z109_SUPPLYEQUIPMENTOUTLETNODE,Air,3
 Node,748,MECHANICAL_34_Z110_SUPPLYINLET,Air,3
 Node,749,MECHANICAL_34_Z110_COOLC-HEATCNODE,Air,6
 Node,750,MECHANICAL_34_Z110_HEATC-FANNODE,Air,5
 Node,751,MECHANICAL_34_Z110_SUPPLYEQUIPMENTOUTLETNODE,Air,3
 Node,752,OFFICE_PRIVATE_34_Z111_SUPPLYINLET,Air,3
 Node,753,OFFICE_PRIVATE_34_Z111_COOLC-HEATCNODE,Air,6
 Node,754,OFFICE_PRIVATE_34_Z111_HEATC-FANNODE,Air,5
 Node,755,OFFICE_PRIVATE_34_Z111_SUPPLYEQUIPMENTOUTLETNODE,Air,3
 Node,756,STORAGE_34_Z112_SUPPLYINLET,Air,3
 Node,757,STORAGE_34_Z112_COOLC-HEATCNODE,Air,6
 Node,758,STORAGE_34_Z112_HEATC-FANNODE,Air,5
 Node,759,STORAGE_34_Z112_SUPPLYEQUIPMENTOUTLETNODE,Air,3
 Node,760,LOBBY_35_Z113_SUPPLYINLET,Air,3
 Node,761,LOBBY_35_Z113_COOLC-HEATCNODE,Air,6
 Node,762,LOBBY_35_Z113_HEATC-FANNODE,Air,5
 Node,763,LOBBY_35_Z113_SUPPLYEQUIPMENTOUTLETNODE,Air,3
 Node,764,CONFERENCE_35_Z114_SUPPLYINLET,Air,3
 Node,765,CONFERENCE_35_Z114_COOLC-HEATCNODE,Air,6
 Node,766,CONFERENCE_35_Z114_HEATC-FANNODE,Air,5
 Node,767,CONFERENCE_35_Z114_SUPPLYEQUIPMENTOUTLETNODE,Air,3
 Node,768,MECHANICAL_35_Z115_SUPPLYINLET,Air,3
 Node,769,MECHANICAL_35_Z115_COOLC-HEATCNODE,Air,6
 Node,770,MECHANICAL_35_Z115_HEATC-FANNODE,Air,5
 Node,771,MECHANICAL_35_Z115_SUPPLYEQUIPMENTOUTLETNODE,Air,3
 Node,772,LOBBY_36_Z116_SUPPLYINLET,Air,3
 Node,773,LOBBY_36_Z116_COOLC-HEATCNODE,Air,6
 Node,774,LOBBY_36_Z116_HEATC-FANNODE,Air,5
 Node,775,LOBBY_36_Z116_SUPPLYEQUIPMENTOUTLETNODE,Air,3
 Node,776,CONFERENCE_36_Z117_SUPPLYINLET,Air,3
 Node,777,CONFERENCE_36_Z117_COOLC-HEATCNODE,Air,6
 Node,778,CONFERENCE_36_Z117_HEATC-FANNODE,Air,5
 Node,779,CONFERENCE_36_Z117_SUPPLYEQUIPMENTOUTLETNODE,Air,3
 Node,780,MECHANICAL_36_Z118_SUPPLYINLET,Air,3
 Node,781,MECHANICAL_36_Z118_COOLC-HEATCNODE,Air,6
 Node,782,MECHANICAL_36_Z118_HEATC-FANNODE,Air,5
 Node,783,MECHANICAL_36_Z118_SUPPLYEQUIPMENTOUTLETNODE,Air,3
 Node,784,OFFICE_OPEN_36_Z119_SUPPLYINLET,Air,3
 Node,785,OFFICE_OPEN_36_Z119_COOLC-HEATCNODE,Air,6
 Node,786,OFFICE_OPEN_36_Z119_HEATC-FANNODE,Air,5
 Node,787,OFFICE_OPEN_36_Z119_SUPPLYEQUIPMENTOUTLETNODE,Air,3
 Node,788,STORAGE_36_Z120_SUPPLYINLET,Air,3
 Node,789,STORAGE_36_Z120_COOLC-HEATCNODE,Air,6
 Node,790,STORAGE_36_Z120_HEATC-FANNODE,Air,5
 Node,791,STORAGE_36_Z120_SUPPLYEQUIPMENTOUTLETNODE,Air,3
 Node,792,LOBBY_37_Z121_SUPPLYINLET,Air,3
 Node,793,LOBBY_37_Z121_COOLC-HEATCNODE,Air,6
 Node,794,LOBBY_37_Z121_HEATC-FANNODE,Air,5
 Node,795,LOBBY_37_Z121_SUPPLYEQUIPMENTOUTLETNODE,Air,3
 Node,796,BREAK_ROOM_37_Z122_SUPPLYINLET,Air,3
 Node,797,BREAK_ROOM_37_Z122_COOLC-HEATCNODE,Air,6
 Node,798,BREAK_ROOM_37_Z122_HEATC-FANNODE,Air,5
 Node,799,BREAK_ROOM_37_Z122_SUPPLYEQUIPMENTOUTLETNODE,Air,3
 Node,800,OFFICE_PRIVATE_37_Z123_SUPPLYINLET,Air,3
 Node,801,OFFICE_PRIVATE_37_Z123_COOLC-HEATCNODE,Air,6
 Node,802,OFFICE_PRIVATE_37_Z123_HEATC-FANNODE,Air,5
 Node,803,OFFICE_PRIVATE_37_Z123_SUPPLYEQUIPMENTOUTLETNODE,Air,3
 Node,804,STORAGE_37_Z124_SUPPLYINLET,Air,3
 Node,805,STORAGE_37_Z124_COOLC-HEATCNODE,Air,6
 Node,806,STORAGE_37_Z124_HEATC-FANNODE,Air,5
 Node,807,STORAGE_37_Z124_SUPPLYEQUIPMENTOUTLETNODE,Air,3
 Node,808,LOBBY_38_Z125_SUPPLYINLET,Air,3
 Node,809,LOBBY_38_Z125_COOLC-HEATCNODE,Air,6
 Node,810,LOBBY_38_Z125_HEATC-FANNODE,Air,5
 Node,811,LOBBY_38_Z125_SUPPLYEQUIPMENTOUTLETNODE,Air,3
 Node,812,BREAK_ROOM_38_Z126_SUPPLYINLET,Air,3
 Node,813,BREAK_ROOM_38_Z126_COOLC-HEATCNODE,Air,6
 Node,814,BREAK_ROOM_38_Z126_HEATC-FANNODE,Air,5
 Node,815,BREAK_ROOM_38_Z126_SUPPLYEQUIPMENTOUTLETNODE,Air,3
 Node,816,MECHANICAL_38_Z127_SUPPLYINLET,Air,3
 Node,817,MECHANICAL_38_Z127_COOLC-HEATCNODE,Air,6
 Node,818,MECHANICAL_38_Z127_HEATC-FANNODE,Air,5
 Node,819,MECHANICAL_38_Z127_SUPPLYEQUIPMENTOUTLETNODE,Air,3
 Node,820,OFFICE_PRIVATE_38_Z128_SUPPLYINLET,Air,3
 Node,821,OFFICE_PRIVATE_38_Z128_COOLC-HEATCNODE,Air,6
 Node,822,OFFICE_PRIVATE_38_Z128_HEATC-FANNODE,Air,5
 Node,823,OFFICE_PRIVATE_38_Z128_SUPPLYEQUIPMENTOUTLETNODE,Air,3
 Node,824,CONFERENCE_39_Z129_SUPPLYINLET,Air,3
 Node,825,CONFERENCE_39_Z129_COOLC-HEATCNODE,Air,6
 Node,826,CONFERENCE_39_Z129_HEATC-FANNODE,Air,5
 Node,827,CONFERENCE_39_Z129_SUPPLYEQUIPMENTOUTLETNODE,Air,3
 Node,828,OFFICE_OPEN_40_Z130_SUPPLYINLET,Air,3
 Node,829,OFFICE_OPEN_40_Z130_COOLC-HEATCNODE,Air,6
 Node,830,OFFICE_OPEN_40_Z130_HEATC-FANNODE,Air,5
 Node,831,OFFICE_OPEN_40_Z130_SUPPLYEQUIPMENTOUTLETNODE,Air,3
 Node,832,OFFICE_PRIVATE_40_Z131_SUPPLYINLET,Air,3
 Node,833,OFFICE_PRIVATE_40_Z131_COOLC-HEATCNODE,Air,6
 Node,834,OFFICE_PRIVATE_40_Z131_HEATC-FANNODE,Air,5
 Node,835,OFFICE_PRIVATE_40_Z131_SUPPLYEQUIPMENTOUTLETNODE,Air,3
 Node,836,STORAGE_40_Z132_SUPPLYINLET,Air,3
 Node,837,STORAGE_40_Z132_COOLC-HEATCNODE,Air,6
 Node,838,STORAGE_40_Z132_HEATC-FANNODE,Air,5
 Node,839,STORAGE_40_Z132_SUPPLYEQUIPMENTOUTLETNODE,Air,3
 Node,840,CONFERENCE_41_Z133_SUPPLYINLET,Air,3
 Node,841,CONFERENCE_41_Z133_COOLC-HEATCNODE,Air,6
 Node,842,CONFERENCE_41_Z133_HEATC-FANNODE,Air,5
 Node,843,CONFERENCE_41_Z133_SUPPLYEQUIPMENTOUTLETNODE,Air,3
 Node,844,OFFICE_OPEN_41_Z134_SUPPLYINLET,Air,3
 Node,845,OFFICE_OPEN_41_Z134_COOLC-HEATCNODE,Air,6
 Node,846,OFFICE_OPEN_41_Z134_HEATC-FANNODE,Air,5
 Node,847,OFFICE_OPEN_41_Z134_SUPPLYEQUIPMENTOUTLETNODE,Air,3
 Node,848,OFFICE_PRIVATE_41_Z135_SUPPLYINLET,Air,3
 Node,849,OFFICE_PRIVATE_41_Z135_COOLC-HEATCNODE,Air,6
 Node,850,OFFICE_PRIVATE_41_Z135_HEATC-FANNODE,Air,5
 Node,851,OFFICE_PRIVATE_41_Z135_SUPPLYEQUIPMENTOUTLETNODE,Air,3
 Node,852,STORAGE_41_Z136_SUPPLYINLET,Air,3
 Node,853,STORAGE_41_Z136_COOLC-HEATCNODE,Air,6
 Node,854,STORAGE_41_Z136_HEATC-FANNODE,Air,5
 Node,855,STORAGE_41_Z136_SUPPLYEQUIPMENTOUTLETNODE,Air,3
 Node,856,CONFERENCE_42_Z137_SUPPLYINLET,Air,3
 Node,857,CONFERENCE_42_Z137_COOLC-HEATCNODE,Air,6
 Node,858,CONFERENCE_42_Z137_HEATC-FANNODE,Air,5
 Node,859,CONFERENCE_42_Z137_SUPPLYEQUIPMENTOUTLETNODE,Air,3
 Node,860,OFFICE_PRIVATE_42_Z138_SUPPLYINLET,Air,3
 Node,861,OFFICE_PRIVATE_42_Z138_COOLC-HEATCNODE,Air,6
 Node,862,OFFICE_PRIVATE_42_Z138_HEATC-FANNODE,Air,5
 Node,863,OFFICE_PRIVATE_42_Z138_SUPPLYEQUIPMENTOUTLETNODE,Air,3
 Node,864,LOBBY_44_Z139_SUPPLYINLET,Air,3
 Node,865,LOBBY_44_Z139_COOLC-HEATCNODE,Air,6
 Node,866,LOBBY_44_Z139_HEATC-FANNODE,Air,5
 Node,867,LOBBY_44_Z139_SUPPLYEQUIPMENTOUTLETNODE,Air,3
 Node,868,CONFERENCE_44_Z140_SUPPLYINLET,Air,3
 Node,869,CONFERENCE_44_Z140_COOLC-HEATCNODE,Air,6
 Node,870,CONFERENCE_44_Z140_HEATC-FANNODE,Air,5
 Node,871,CONFERENCE_44_Z140_SUPPLYEQUIPMENTOUTLETNODE,Air,3
 Node,872,LOBBY_45_Z141_SUPPLYINLET,Air,3
 Node,873,LOBBY_45_Z141_COOLC-HEATCNODE,Air,6
 Node,874,LOBBY_45_Z141_HEATC-FANNODE,Air,5
 Node,875,LOBBY_45_Z141_SUPPLYEQUIPMENTOUTLETNODE,Air,3
 Node,876,CONFERENCE_45_Z142_SUPPLYINLET,Air,3
 Node,877,CONFERENCE_45_Z142_COOLC-HEATCNODE,Air,6
 Node,878,CONFERENCE_45_Z142_HEATC-FANNODE,Air,5
 Node,879,CONFERENCE_45_Z142_SUPPLYEQUIPMENTOUTLETNODE,Air,3
 Node,880,OFFICE_OPEN_45_Z143_SUPPLYINLET,Air,3
 Node,881,OFFICE_OPEN_45_Z143_COOLC-HEATCNODE,Air,6
 Node,882,OFFICE_OPEN_45_Z143_HEATC-FANNODE,Air,5
 Node,883,OFFICE_OPEN_45_Z143_SUPPLYEQUIPMENTOUTLETNODE,Air,3
 Node,884,CONFERENCE_46_Z144_SUPPLYINLET,Air,3
 Node,885,CONFERENCE_46_Z144_COOLC-HEATCNODE,Air,6
 Node,886,CONFERENCE_46_Z144_HEATC-FANNODE,Air,5
 Node,887,CONFERENCE_46_Z144_SUPPLYEQUIPMENTOUTLETNODE,Air,3
 Node,888,BREAK_ROOM_46_Z145_SUPPLYINLET,Air,3
 Node,889,BREAK_ROOM_46_Z145_COOLC-HEATCNODE,Air,6
 Node,890,BREAK_ROOM_46_Z145_HEATC-FANNODE,Air,5
 Node,891,BREAK_ROOM_46_Z145_SUPPLYEQUIPMENTOUTLETNODE,Air,3
 Node,892,OFFICE_OPEN_46_Z146_SUPPLYINLET,Air,3
 Node,893,OFFICE_OPEN_46_Z146_COOLC-HEATCNODE,Air,6
 Node,894,OFFICE_OPEN_46_Z146_HEATC-FANNODE,Air,5
 Node,895,OFFICE_OPEN_46_Z146_SUPPLYEQUIPMENTOUTLETNODE,Air,3
 Node,896,OFFICE_PRIVATE_46_Z147_SUPPLYINLET,Air,3
 Node,897,OFFICE_PRIVATE_46_Z147_COOLC-HEATCNODE,Air,6
 Node,898,OFFICE_PRIVATE_46_Z147_HEATC-FANNODE,Air,5
 Node,899,OFFICE_PRIVATE_46_Z147_SUPPLYEQUIPMENTOUTLETNODE,Air,3
 Node,900,STORAGE_46_Z148_SUPPLYINLET,Air,3
 Node,901,STORAGE_46_Z148_COOLC-HEATCNODE,Air,6
 Node,902,STORAGE_46_Z148_HEATC-FANNODE,Air,5
 Node,903,STORAGE_46_Z148_SUPPLYEQUIPMENTOUTLETNODE,Air,3
 Node,904,CONFERENCE_47_Z149_SUPPLYINLET,Air,3
 Node,905,CONFERENCE_47_Z149_COOLC-HEATCNODE,Air,6
 Node,906,CONFERENCE_47_Z149_HEATC-FANNODE,Air,5
 Node,907,CONFERENCE_47_Z149_SUPPLYEQUIPMENTOUTLETNODE,Air,3
 Node,908,BREAK_ROOM_47_Z150_SUPPLYINLET,Air,3
 Node,909,BREAK_ROOM_47_Z150_COOLC-HEATCNODE,Air,6
 Node,910,BREAK_ROOM_47_Z150_HEATC-FANNODE,Air,5
 Node,911,BREAK_ROOM_47_Z150_SUPPLYEQUIPMENTOUTLETNODE,Air,3
 Node,912,OFFICE_OPEN_47_Z151_SUPPLYINLET,Air,3
 Node,913,OFFICE_OPEN_47_Z151_COOLC-HEATCNODE,Air,6
 Node,914,OFFICE_OPEN_47_Z151_HEATC-FANNODE,Air,5
 Node,915,OFFICE_OPEN_47_Z151_SUPPLYEQUIPMENTOUTLETNODE,Air,3
 Node,916,OFFICE_PRIVATE_47_Z152_SUPPLYINLET,Air,3
 Node,917,OFFICE_PRIVATE_47_Z152_COOLC-HEATCNODE,Air,6
 Node,918,OFFICE_PRIVATE_47_Z152_HEATC-FANNODE,Air,5
 Node,919,OFFICE_PRIVATE_47_Z152_SUPPLYEQUIPMENTOUTLETNODE,Air,3
 Node,920,STORAGE_47_Z153_SUPPLYINLET,Air,3
 Node,921,STORAGE_47_Z153_COOLC-HEATCNODE,Air,6
 Node,922,STORAGE_47_Z153_HEATC-FANNODE,Air,5
 Node,923,STORAGE_47_Z153_SUPPLYEQUIPMENTOUTLETNODE,Air,3
 Node,924,LOBBY_48_Z154_SUPPLYINLET,Air,3
 Node,925,LOBBY_48_Z154_COOLC-HEATCNODE,Air,6
 Node,926,LOBBY_48_Z154_HEATC-FANNODE,Air,5
 Node,927,LOBBY_48_Z154_SUPPLYEQUIPMENTOUTLETNODE,Air,3
 Node,928,CONFERENCE_48_Z155_SUPPLYINLET,Air,3
 Node,929,CONFERENCE_48_Z155_COOLC-HEATCNODE,Air,6
 Node,930,CONFERENCE_48_Z155_HEATC-FANNODE,Air,5
 Node,931,CONFERENCE_48_Z155_SUPPLYEQUIPMENTOUTLETNODE,Air,3
 Node,932,MECHANICAL_48_Z156_SUPPLYINLET,Air,3
 Node,933,MECHANICAL_48_Z156_COOLC-HEATCNODE,Air,6
 Node,934,MECHANICAL_48_Z156_HEATC-FANNODE,Air,5
 Node,935,MECHANICAL_48_Z156_SUPPLYEQUIPMENTOUTLETNODE,Air,3
 Node,936,OFFICE_PRIVATE_48_Z157_SUPPLYINLET,Air,3
 Node,937,OFFICE_PRIVATE_48_Z157_COOLC-HEATCNODE,Air,6
 Node,938,OFFICE_PRIVATE_48_Z157_HEATC-FANNODE,Air,5
 Node,939,OFFICE_PRIVATE_48_Z157_SUPPLYEQUIPMENTOUTLETNODE,Air,3
 Node,940,CONFERENCE_49_Z158_SUPPLYINLET,Air,3
 Node,941,CONFERENCE_49_Z158_COOLC-HEATCNODE,Air,6
 Node,942,CONFERENCE_49_Z158_HEATC-FANNODE,Air,5
 Node,943,CONFERENCE_49_Z158_SUPPLYEQUIPMENTOUTLETNODE,Air,3
 Node,944,OFFICE_PRIVATE_49_Z159_SUPPLYINLET,Air,3
 Node,945,OFFICE_PRIVATE_49_Z159_COOLC-HEATCNODE,Air,6
 Node,946,OFFICE_PRIVATE_49_Z159_HEATC-FANNODE,Air,5
 Node,947,OFFICE_PRIVATE_49_Z159_SUPPLYEQUIPMENTOUTLETNODE,Air,3
 Node,948,STORAGE_49_Z160_SUPPLYINLET,Air,3
 Node,949,STORAGE_49_Z160_COOLC-HEATCNODE,Air,6
 Node,950,STORAGE_49_Z160_HEATC-FANNODE,Air,5
 Node,951,STORAGE_49_Z160_SUPPLYEQUIPMENTOUTLETNODE,Air,3
 Node,952,BREAK_ROOM_50_Z161_SUPPLYINLET,Air,3
 Node,953,BREAK_ROOM_50_Z161_COOLC-HEATCNODE,Air,6
 Node,954,BREAK_ROOM_50_Z161_HEATC-FANNODE,Air,5
 Node,955,BREAK_ROOM_50_Z161_SUPPLYEQUIPMENTOUTLETNODE,Air,3
 Node,956,OFFICE_PRIVATE_50_Z162_SUPPLYINLET,Air,3
 Node,957,OFFICE_PRIVATE_50_Z162_COOLC-HEATCNODE,Air,6
 Node,958,OFFICE_PRIVATE_50_Z162_HEATC-FANNODE,Air,5
 Node,959,OFFICE_PRIVATE_50_Z162_SUPPLYEQUIPMENTOUTLETNODE,Air,3
 Node,960,OFFICE_PRIVATE_51_Z163_SUPPLYINLET,Air,3
 Node,961,OFFICE_PRIVATE_51_Z163_COOLC-HEATCNODE,Air,6
 Node,962,OFFICE_PRIVATE_51_Z163_HEATC-FANNODE,Air,5
 Node,963,OFFICE_PRIVATE_51_Z163_SUPPLYEQUIPMENTOUTLETNODE,Air,3
 Node,964,STORAGE_51_Z164_SUPPLYINLET,Air,3
 Node,965,STORAGE_51_Z164_COOLC-HEATCNODE,Air,6
 Node,966,STORAGE_51_Z164_HEATC-FANNODE,Air,5
 Node,967,STORAGE_51_Z164_SUPPLYEQUIPMENTOUTLETNODE,Air,3
 Node,968,BREAK_ROOM_52_Z165_SUPPLYINLET,Air,3
 Node,969,BREAK_ROOM_52_Z165_COOLC-HEATCNODE,Air,6
 Node,970,BREAK_ROOM_52_Z165_HEATC-FANNODE,Air,5
 Node,971,BREAK_ROOM_52_Z165_SUPPLYEQUIPMENTOUTLETNODE,Air,3
 Node,972,MECHANICAL_52_Z166_SUPPLYINLET,Air,3
 Node,973,MECHANICAL_52_Z166_COOLC-HEATCNODE,Air,6
 Node,974,MECHANICAL_52_Z166_HEATC-FANNODE,Air,5
 Node,975,MECHANICAL_52_Z166_SUPPLYEQUIPMENTOUTLETNODE,Air,3
 Node,976,STORAGE_52_Z167_SUPPLYINLET,Air,3
 Node,977,STORAGE_52_Z167_COOLC-HEATCNODE,Air,6
 Node,978,STORAGE_52_Z167_HEATC-FANNODE,Air,5
 Node,979,STORAGE_52_Z167_SUPPLYEQUIPMENTOUTLETNODE,Air,3
 Node,980,BREAK_ROOM_53_Z168_SUPPLYINLET,Air,3
 Node,981,BREAK_ROOM_53_Z168_COOLC-HEATCNODE,Air,6
 Node,982,BREAK_ROOM_53_Z168_HEATC-FANNODE,Air,5
 Node,983,BREAK_ROOM_53_Z168_SUPPLYEQUIPMENTOUTLETNODE,Air,3
 Node,984,MECHANICAL_53_Z169_SUPPLYINLET,Air,3
 Node,985,MECHANICAL_53_Z169_COOLC-HEATCNODE,Air,6
 Node,986,MECHANICAL_53_Z169_HEATC-FANNODE,Air,5
 Node,987,MECHANICAL_53_Z169_SUPPLYEQUIPMENTOUTLETNODE,Air,3
 Node,988,OFFICE_OPEN_53_Z170_SUPPLYINLET,Air,3
 Node,989,OFFICE_OPEN_53_Z170_COOLC-HEATCNODE,Air,6
 Node,990,OFFICE_OPEN_53_Z170_HEATC-FANNODE,Air,5
 Node,991,OFFICE_OPEN_53_Z170_SUPPLYEQUIPMENTOUTLETNODE,Air,3
 Node,992,STORAGE_53_Z171_SUPPLYINLET,Air,3
 Node,993,STORAGE_53_Z171_COOLC-HEATCNODE,Air,6
 Node,994,STORAGE_53_Z171_HEATC-FANNODE,Air,5
 Node,995,STORAGE_53_Z171_SUPPLYEQUIPMENTOUTLETNODE,Air,3
 Node,996,LOBBY_54_Z172_SUPPLYINLET,Air,3
 Node,997,LOBBY_54_Z172_COOLC-HEATCNODE,Air,6
 Node,998,LOBBY_54_Z172_HEATC-FANNODE,Air,5
 Node,999,LOBBY_54_Z172_SUPPLYEQUIPMENTOUTLETNODE,Air,3
 Node,1000,OFFICE_PRIVATE_54_Z173_SUPPLYINLET,Air,3
 Node,1001,OFFICE_PRIVATE_54_Z173_COOLC-HEATCNODE,Air,6
 Node,1002,OFFICE_PRIVATE_54_Z173_HEATC-FANNODE,Air,5
 Node,1003,OFFICE_PRIVATE_54_Z173_SUPPLYEQUIPMENTOUTLETNODE,Air,3
 Node,1004,STORAGE_54_Z174_SUPPLYINLET,Air,3
 Node,1005,STORAGE_54_Z174_COOLC-HEATCNODE,Air,6
 Node,1006,STORAGE_54_Z174_HEATC-FANNODE,Air,5
 Node,1007,STORAGE_54_Z174_SUPPLYEQUIPMENTOUTLETNODE,Air,3
 Node,1008,LOBBY_55_Z175_SUPPLYINLET,Air,3
 Node,1009,LOBBY_55_Z175_COOLC-HEATCNODE,Air,6
 Node,1010,LOBBY_55_Z175_HEATC-FANNODE,Air,5
 Node,1011,LOBBY_55_Z175_SUPPLYEQUIPMENTOUTLETNODE,Air,3
 Node,1012,MECHANICAL_55_Z176_SUPPLYINLET,Air,3
 Node,1013,MECHANICAL_55_Z176_COOLC-HEATCNODE,Air,6
 Node,1014,MECHANICAL_55_Z176_HEATC-FANNODE,Air,5
 Node,1015,MECHANICAL_55_Z176_SUPPLYEQUIPMENTOUTLETNODE,Air,3
 Node,1016,OFFICE_OPEN_55_Z177_SUPPLYINLET,Air,3
 Node,1017,OFFICE_OPEN_55_Z177_COOLC-HEATCNODE,Air,6
 Node,1018,OFFICE_OPEN_55_Z177_HEATC-FANNODE,Air,5
 Node,1019,OFFICE_OPEN_55_Z177_SUPPLYEQUIPMENTOUTLETNODE,Air,3
 Node,1020,OFFICE_PRIVATE_55_Z178_SUPPLYINLET,Air,3
 Node,1021,OFFICE_PRIVATE_55_Z178_COOLC-HEATCNODE,Air,6
 Node,1022,OFFICE_PRIVATE_55_Z178_HEATC-FANNODE,Air,5
 Node,1023,OFFICE_PRIVATE_55_Z178_SUPPLYEQUIPMENTOUTLETNODE,Air,3
 Node,1024,STORAGE_55_Z179_SUPPLYINLET,Air,3
 Node,1025,STORAGE_55_Z179_COOLC-HEATCNODE,Air,6
 Node,1026,STORAGE_55_Z179_HEATC-FANNODE,Air,5
 Node,1027,STORAGE_55_Z179_SUPPLYEQUIPMENTOUTLETNODE,Air,3
 Node,1028,LOBBY_56_Z180_SUPPLYINLET,Air,3
 Node,1029,LOBBY_56_Z180_COOLC-HEATCNODE,Air,6
 Node,1030,LOBBY_56_Z180_HEATC-FANNODE,Air,5
 Node,1031,LOBBY_56_Z180_SUPPLYEQUIPMENTOUTLETNODE,Air,3
 Node,1032,MECHANICAL_56_Z181_SUPPLYINLET,Air,3
 Node,1033,MECHANICAL_56_Z181_COOLC-HEATCNODE,Air,6
 Node,1034,MECHANICAL_56_Z181_HEATC-FANNODE,Air,5
 Node,1035,MECHANICAL_56_Z181_SUPPLYEQUIPMENTOUTLETNODE,Air,3
 Node,1036,OFFICE_PRIVATE_56_Z182_SUPPLYINLET,Air,3
 Node,1037,OFFICE_PRIVATE_56_Z182_COOLC-HEATCNODE,Air,6
 Node,1038,OFFICE_PRIVATE_56_Z182_HEATC-FANNODE,Air,5
 Node,1039,OFFICE_PRIVATE_56_Z182_SUPPLYEQUIPMENTOUTLETNODE,Air,3
 Node,1040,STORAGE_56_Z183_SUPPLYINLET,Air,3
 Node,1041,STORAGE_56_Z183_COOLC-HEATCNODE,Air,6
 Node,1042,STORAGE_56_Z183_HEATC-FANNODE,Air,5
 Node,1043,STORAGE_56_Z183_SUPPLYEQUIPMENTOUTLETNODE,Air,3
 Node,1044,CONFERENCE_57_Z184_SUPPLYINLET,Air,3
 Node,1045,CONFERENCE_57_Z184_COOLC-HEATCNODE,Air,6
 Node,1046,CONFERENCE_57_Z184_HEATC-FANNODE,Air,5
 Node,1047,CONFERENCE_57_Z184_SUPPLYEQUIPMENTOUTLETNODE,Air,3
 Node,1048,BREAK_ROOM_57_Z185_SUPPLYINLET,Air,3
 Node,1049,BREAK_ROOM_57_Z185_COOLC-HEATCNODE,Air,6
 Node,1050,BREAK_ROOM_57_Z185_HEATC-FANNODE,Air,5
 Node,1051,BREAK_ROOM_57_Z185_SUPPLYEQUIPMENTOUTLETNODE,Air,3
 Node,1052,OFFICE_PRIVATE_57_Z186_SUPPLYINLET,Air,3
 Node,1053,OFFICE_PRIVATE_57_Z186_COOLC-HEATCNODE,Air,6
 Node,1054,OFFICE_PRIVATE_57_Z186_HEATC-FANNODE,Air,5
 Node,1055,OFFICE_PRIVATE_57_Z186_SUPPLYEQUIPMENTOUTLETNODE,Air,3
 Node,1056,STORAGE_57_Z187_SUPPLYINLET,Air,3
 Node,1057,STORAGE_57_Z187_COOLC-HEATCNODE,Air,6
 Node,1058,STORAGE_57_Z187_HEATC-FANNODE,Air,5
 Node,1059,STORAGE_57_Z187_SUPPLYEQUIPMENTOUTLETNODE,Air,3
 Node,1060,CONFERENCE_58_Z188_SUPPLYINLET,Air,3
 Node,1061,CONFERENCE_58_Z188_COOLC-HEATCNODE,Air,6
 Node,1062,CONFERENCE_58_Z188_HEATC-FANNODE,Air,5
 Node,1063,CONFERENCE_58_Z188_SUPPLYEQUIPMENTOUTLETNODE,Air,3
 Node,1064,MECHANICAL_58_Z189_SUPPLYINLET,Air,3
 Node,1065,MECHANICAL_58_Z189_COOLC-HEATCNODE,Air,6
 Node,1066,MECHANICAL_58_Z189_HEATC-FANNODE,Air,5
 Node,1067,MECHANICAL_58_Z189_SUPPLYEQUIPMENTOUTLETNODE,Air,3
 Node,1068,CONFERENCE_59_Z190_SUPPLYINLET,Air,3
 Node,1069,CONFERENCE_59_Z190_COOLC-HEATCNODE,Air,6
 Node,1070,CONFERENCE_59_Z190_HEATC-FANNODE,Air,5
 Node,1071,CONFERENCE_59_Z190_SUPPLYEQUIPMENTOUTLETNODE,Air,3
 Node,1072,STORAGE_59_Z191_SUPPLYINLET,Air,3
 Node,1073,STORAGE_59_Z191_COOLC-HEATCNODE,Air,6
 Node,1074,STORAGE_59_Z191_HEATC-FANNODE,Air,5
 Node,1075,STORAGE_59_Z191_SUPPLYEQUIPMENTOUTLETNODE,Air,3
 Node,1076,BREAK_ROOM_60_Z192_SUPPLYINLET,Air,3
 Node,1077,BREAK_ROOM_60_Z192_COOLC-HEATCNODE,Air,6
 Node,1078,BREAK_ROOM_60_Z192_HEATC-FANNODE,Air,5
 Node,1079,BREAK_ROOM_60_Z192_SUPPLYEQUIPMENTOUTLETNODE,Air,3
 Node,1080,MECHANICAL_60_Z193_SUPPLYINLET,Air,3
 Node,1081,MECHANICAL_60_Z193_COOLC-HEATCNODE,Air,6
 Node,1082,MECHANICAL_60_Z193_HEATC-FANNODE,Air,5
 Node,1083,MECHANICAL_60_Z193_SUPPLYEQUIPMENTOUTLETNODE,Air,3
 Node,1084,OFFICE_OPEN_60_Z194_SUPPLYINLET,Air,3
 Node,1085,OFFICE_OPEN_60_Z194_COOLC-HEATCNODE,Air,6
 Node,1086,OFFICE_OPEN_60_Z194_HEATC-FANNODE,Air,5
 Node,1087,OFFICE_OPEN_60_Z194_SUPPLYEQUIPMENTOUTLETNODE,Air,3
 Node,1088,STORAGE_60_Z195_SUPPLYINLET,Air,3
 Node,1089,STORAGE_60_Z195_COOLC-HEATCNODE,Air,6
 Node,1090,STORAGE_60_Z195_HEATC-FANNODE,Air,5
 Node,1091,STORAGE_60_Z195_SUPPLYEQUIPMENTOUTLETNODE,Air,3
 Node,1092,CONFERENCE_61_Z196_SUPPLYINLET,Air,3
 Node,1093,CONFERENCE_61_Z196_COOLC-HEATCNODE,Air,6
 Node,1094,CONFERENCE_61_Z196_HEATC-FANNODE,Air,5
 Node,1095,CONFERENCE_61_Z196_SUPPLYEQUIPMENTOUTLETNODE,Air,3
 Node,1096,MECHANICAL_61_Z197_SUPPLYINLET,Air,3
 Node,1097,MECHANICAL_61_Z197_COOLC-HEATCNODE,Air,6
 Node,1098,MECHANICAL_61_Z197_HEATC-FANNODE,Air,5
 Node,1099,MECHANICAL_61_Z197_SUPPLYEQUIPMENTOUTLETNODE,Air,3
 Node,1100,OFFICE_PRIVATE_61_Z198_SUPPLYINLET,Air,3
 Node,1101,OFFICE_PRIVATE_61_Z198_COOLC-HEATCNODE,Air,6
 Node,1102,OFFICE_PRIVATE_61_Z198_HEATC-FANNODE,Air,5
 Node,1103,OFFICE_PRIVATE_61_Z198_SUPPLYEQUIPMENTOUTLETNODE,Air,3
 Node,1104,LOBBY_62_Z199_SUPPLYINLET,Air,3
 Node,1105,LOBBY_62_Z199_COOLC-HEATCNODE,Air,6
 Node,1106,LOBBY_62_Z199_HEATC-FANNODE,Air,5
 Node,1107,LOBBY_62_Z199_SUPPLYEQUIPMENTOUTLETNODE,Air,3
 Node,1108,MECHANICAL_62_Z200_SUPPLYINLET,Air,3
 Node,1109,MECHANICAL_62_Z200_COOLC-HEATCNODE,Air,6
 Node,1110,MECHANICAL_62_Z200_HEATC-FANNODE,Air,5
 Node,1111,MECHANICAL_62_Z200_SUPPLYEQUIPMENTOUTLETNODE,Air,3
 Node,1112,LOBBY_63_Z201_SUPPLYINLET,Air,3
 Node,1113,LOBBY_63_Z201_COOLC-HEATCNODE,Air,6
 Node,1114,LOBBY_63_Z201_HEATC-FANNODE,Air,5
 Node,1115,LOBBY_63_Z201_SUPPLYEQUIPMENTOUTLETNODE,Air,3
 Node,1116,CONFERENCE_63_Z202_SUPPLYINLET,Air,3
 Node,1117,CONFERENCE_63_Z202_COOLC-HEATCNODE,Air,6
 Node,1118,CONFERENCE_63_Z202_HEATC-FANNODE,Air,5
 Node,1119,CONFERENCE_63_Z202_SUPPLYEQUIPMENTOUTLETNODE,Air,3
 Node,1120,LOBBY_64_Z203_SUPPLYINLET,Air,3
 Node,1121,LOBBY_64_Z203_COOLC-HEATCNODE,Air,6
 Node,1122,LOBBY_64_Z203_HEATC-FANNODE,Air,5
 Node,1123,LOBBY_64_Z203_SUPPLYEQUIPMENTOUTLETNODE,Air,3
 Node,1124,BREAK_ROOM_64_Z204_SUPPLYINLET,Air,3
 Node,1125,BREAK_ROOM_64_Z204_COOLC-HEATCNODE,Air,6
 Node,1126,BREAK_ROOM_64_Z204_HEATC-FANNODE,Air,5
 Node,1127,BREAK_ROOM_64_Z204_SUPPLYEQUIPMENTOUTLETNODE,Air,3
 Node,1128,MECHANICAL_64_Z205_SUPPLYINLET,Air,3
 Node,1129,MECHANICAL_64_Z205_COOLC-HEATCNODE,Air,6
 Node,1130,MECHANICAL_64_Z205_HEATC-FANNODE,Air,5
 Node,1131,MECHANICAL_64_Z205_SUPPLYEQUIPMENTOUTLETNODE,Air,3
 Node,1132,STORAGE_64_Z206_SUPPLYINLET,Air,3
 Node,1133,STORAGE_64_Z206_COOLC-HEATCNODE,Air,6
 Node,1134,STORAGE_64_Z206_HEATC-FANNODE,Air,5
 Node,1135,STORAGE_64_Z206_SUPPLYEQUIPMENTOUTLETNODE,Air,3
 Node,1136,LOBBY_65_Z207_SUPPLYINLET,Air,3
 Node,1137,LOBBY_65_Z207_COOLC-HEATCNODE,Air,6
 Node,1138,LOBBY_65_Z207_HEATC-FANNODE,Air,5
 Node,1139,LOBBY_65_Z207_SUPPLYEQUIPMENTOUTLETNODE,Air,3
 Node,1140,OFFICE_PRIVATE_65_Z208_SUPPLYINLET,Air,3
 Node,1141,OFFICE_PRIVATE_65_Z208_COOLC-HEATCNODE,Air,6
 Node,1142,OFFICE_PRIVATE_65_Z208_HEATC-FANNODE,Air,5
 Node,1143,OFFICE_PRIVATE_65_Z208_SUPPLYEQUIPMENTOUTLETNODE,Air,3
 Node,1144,MECHANICAL_66_Z209_SUPPLYINLET,Air,3
 Node,1145,MECHANICAL_66_Z209_COOLC-HEATCNODE,Air,6
 Node,1146,MECHANICAL_66_Z209_HEATC-FANNODE,Air,5
 Node,1147,MECHANICAL_66_Z209_SUPPLYEQUIPMENTOUTLETNODE,Air,3
 Node,1148,CONFERENCE_67_Z210_SUPPLYINLET,Air,3
 Node,1149,CONFERENCE_67_Z210_COOLC-HEATCNODE,Air,6
 Node,1150,CONFERENCE_67_Z210_HEATC-FANNODE,Air,5
 Node,1151,CONFERENCE_67_Z210_SUPPLYEQUIPMENTOUTLETNODE,Air,3
 Node,1152,BREAK_ROOM_67_Z211_SUPPLYINLET,Air,3
 Node,1153,BREAK_ROOM_67_Z211_COOLC-HEATCNODE,Air,6
 Node,1154,BREAK_ROOM_67_Z211_HEATC-FANNODE,Air,5
 Node,1155,BREAK_ROOM_67_Z211_SUPPLYEQUIPMENTOUTLETNODE,Air,3
 Node,1156,MECHANICAL_67_Z212_SUPPLYINLET,Air,3
 Node,1157,MECHANICAL_67_Z212_COOLC-HEATCNODE,Air,6
 Node,1158,MECHANICAL_67_Z212_HEATC-FANNODE,Air,5
 Node,1159,MECHANICAL_67_Z212_SUPPLYEQUIPMENTOUTLETNODE,Air,3
 Node,1160,OFFICE_OPEN_67_Z213_SUPPLYINLET,Air,3
 Node,1161,OFFICE_OPEN_67_Z213_COOLC-HEATCNODE,Air,6
 Node,1162,OFFICE_OPEN_67_Z213_HEATC-FANNODE,Air,5
 Node,1163,OFFICE_OPEN_67_Z213_SUPPLYEQUIPMENTOUTLETNODE,Air,3
 Node,1164,OFFICE_PRIVATE_67_Z214_SUPPLYINLET,Air,3
 Node,1165,OFFICE_PRIVATE_67_Z214_COOLC-HEATCNODE,Air,6
 Node,1166,OFFICE_PRIVATE_67_Z214_HEATC-FANNODE,Air,5
 Node,1167,OFFICE_PRIVATE_67_Z214_SUPPLYEQUIPMENTOUTLETNODE,Air,3
 Node,1168,CONFERENCE_68_Z215_SUPPLYINLET,Air,3
 Node,1169,CONFERENCE_68_Z215_COOLC-HEATCNODE,Air,6
 Node,1170,CONFERENCE_68_Z215_HEATC-FANNODE,Air,5
 Node,1171,CONFERENCE_68_Z215_SUPPLYEQUIPMENTOUTLETNODE,Air,3
 Node,1172,BREAK_ROOM_68_Z216_SUPPLYINLET,Air,3
 Node,1173,BREAK_ROOM_68_Z216_COOLC-HEATCNODE,Air,6
 Node,1174,BREAK_ROOM_68_Z216_HEATC-FANNODE,Air,5
 Node,1175,BREAK_ROOM_68_Z216_SUPPLYEQUIPMENTOUTLETNODE,Air,3
 Node,1176,OFFICE_OPEN_68_Z217_SUPPLYINLET,Air,3
 Node,1177,OFFICE_OPEN_68_Z217_COOLC-HEATCNODE,Air,6
 Node,1178,OFFICE_OPEN_68_Z217_HEATC-FANNODE,Air,5
 Node,1179,OFFICE_OPEN_68_Z217_SUPPLYEQUIPMENTOUTLETNODE,Air,3
 Node,1180,OFFICE_PRIVATE_68_Z218_SUPPLYINLET,Air,3
 Node,1181,OFFICE_PRIVATE_68_Z218_COOLC-HEATCNODE,Air,6
 Node,1182,OFFICE_PRIVATE_68_Z218_HEATC-FANNODE,Air,5
 Node,1183,OFFICE_PRIVATE_68_Z218_SUPPLYEQUIPMENTOUTLETNODE,Air,3
 Node,1184,LOBBY_69_Z219_SUPPLYINLET,Air,3
 Node,1185,LOBBY_69_Z219_COOLC-HEATCNODE,Air,6
 Node,1186,LOBBY_69_Z219_HEATC-FANNODE,Air,5
 Node,1187,LOBBY_69_Z219_SUPPLYEQUIPMENTOUTLETNODE,Air,3
 Node,1188,MECHANICAL_69_Z220_SUPPLYINLET,Air,3
 Node,1189,MECHANICAL_69_Z220_COOLC-HEATCNODE,Air,6
 Node,1190,MECHANICAL_69_Z220_HEATC-FANNODE,Air,5
 Node,1191,MECHANICAL_69_Z220_SUPPLYEQUIPMENTOUTLETNODE,Air,3
 Node,1192,OFFICE_OPEN_69_Z221_SUPPLYINLET,Air,3
 Node,1193,OFFICE_OPEN_69_Z221_COOLC-HEATCNODE,Air,6
 Node,1194,OFFICE_OPEN_69_Z221_HEATC-FANNODE,Air,5
 Node,1195,OFFICE_OPEN_69_Z221_SUPPLYEQUIPMENTOUTLETNODE,Air,3
 Node,1196,OFFICE_PRIVATE_69_Z222_SUPPLYINLET,Air,3
 Node,1197,OFFICE_PRIVATE_69_Z222_COOLC-HEATCNODE,Air,6
 Node,1198,OFFICE_PRIVATE_69_Z222_HEATC-FANNODE,Air,5
 Node,1199,OFFICE_PRIVATE_69_Z222_SUPPLYEQUIPMENTOUTLETNODE,Air,3
 Node,1200,LOBBY_70_Z223_SUPPLYINLET,Air,3
 Node,1201,LOBBY_70_Z223_COOLC-HEATCNODE,Air,6
 Node,1202,LOBBY_70_Z223_HEATC-FANNODE,Air,5
 Node,1203,LOBBY_70_Z223_SUPPLYEQUIPMENTOUTLETNODE,Air,3
 Node,1204,BREAK_ROOM_70_Z224_SUPPLYINLET,Air,3
 Node,1205,BREAK_ROOM_70_Z224_COOLC-HEATCNODE,Air,6
 Node,1206,BREAK_ROOM_70_Z224_HEATC-FANNODE,Air,5
 Node,1207,BREAK_ROOM_70_Z224_SUPPLYEQUIPMENTOUTLETNODE,Air,3
 Node,1208,MECHANICAL_70_Z225_SUPPLYINLET,Air,3
 Node,1209,MECHANICAL_70_Z225_COOLC-HEATCNODE,Air,6
 Node,1210,MECHANICAL_70_Z225_HEATC-FANNODE,Air,5
 Node,1211,MECHANICAL_70_Z225_SUPPLYEQUIPMENTOUTLETNODE,Air,3
 Node,1212,OFFICE_PRIVATE_70_Z226_SUPPLYINLET,Air,3
 Node,1213,OFFICE_PRIVATE_70_Z226_COOLC-HEATCNODE,Air,6
 Node,1214,OFFICE_PRIVATE_70_Z226_HEATC-FANNODE,Air,5
 Node,1215,OFFICE_PRIVATE_70_Z226_SUPPLYEQUIPMENTOUTLETNODE,Air,3
 Node,1216,MECHANICAL_71_Z227_SUPPLYINLET,Air,3
 Node,1217,MECHANICAL_71_Z227_COOLC-HEATCNODE,Air,6
 Node,1218,MECHANICAL_71_Z227_HEATC-FANNODE,Air,5
 Node,1219,MECHANICAL_71_Z227_SUPPLYEQUIPMENTOUTLETNODE,Air,3
 Node,1220,STORAGE_71_Z228_SUPPLYINLET,Air,3
 Node,1221,STORAGE_71_Z228_COOLC-HEATCNODE,Air,6
 Node,1222,STORAGE_71_Z228_HEATC-FANNODE,Air,5
 Node,1223,STORAGE_71_Z228_SUPPLYEQUIPMENTOUTLETNODE,Air,3
 Node,1224,LOBBY_72_Z229_SUPPLYINLET,Air,3
 Node,1225,LOBBY_72_Z229_COOLC-HEATCNODE,Air,6
 Node,1226,LOBBY_72_Z229_HEATC-FANNODE,Air,5
 Node,1227,LOBBY_72_Z229_SUPPLYEQUIPMENTOUTLETNODE,Air,3
 Node,1228,BREAK_ROOM_72_Z230_SUPPLYINLET,Air,3
 Node,1229,BREAK_ROOM_72_Z230_COOLC-HEATCNODE,Air,6
 Node,1230,BREAK_ROOM_72_Z230_HEATC-FANNODE,Air,5
 Node,1231,BREAK_ROOM_72_Z230_SUPPLYEQUIPMENTOUTLETNODE,Air,3
 Node,1232,OFFICE_PRIVATE_72_Z231_SUPPLYINLET,Air,3
 Node,1233,OFFICE_PRIVATE_72_Z231_COOLC-HEATCNODE,Air,6
 Node,1234,OFFICE_PRIVATE_72_Z231_HEATC-FANNODE,Air,5
 Node,1235,OFFICE_PRIVATE_72_Z231_SUPPLYEQUIPMENTOUTLETNODE,Air,3
 Node,1236,LOBBY_73_Z232_SUPPLYINLET,Air,3
 Node,1237,LOBBY_73_Z232_COOLC-HEATCNODE,Air,6
 Node,1238,LOBBY_73_Z232_HEATC-FANNODE,Air,5
 Node,1239,LOBBY_73_Z232_SUPPLYEQUIPMENTOUTLETNODE,Air,3
 Node,1240,CONFERENCE_73_Z233_SUPPLYINLET,Air,3
 Node,1241,CONFERENCE_73_Z233_COOLC-HEATCNODE,Air,6
 Node,1242,CONFERENCE_73_Z233_HEATC-FANNODE,Air,5
 Node,1243,CONFERENCE_73_Z233_SUPPLYEQUIPMENTOUTLETNODE,Air,3
 Node,1244,MECHANICAL_73_Z234_SUPPLYINLET,Air,3
 Node,1245,MECHANICAL_73_Z234_COOLC-HEATCNODE,Air,6
 Node,1246,MECHANICAL_73_Z234_HEATC-FANNODE,Air,5
 Node,1247,MECHANICAL_73_Z234_SUPPLYEQUIPMENTOUTLETNODE,Air,3
 Node,1248,STORAGE_73_Z235_SUPPLYINLET,Air,3
 Node,1249,STORAGE_73_Z235_COOLC-HEATCNODE,Air,6
 Node,1250,STORAGE_73_Z235_HEATC-FANNODE,Air,5
 Node,1251,STORAGE_73_Z235_SUPPLYEQUIPMENTOUTLETNODE,Air,3
 Node,1252,LOBBY_74_Z236_SUPPLYINLET,Air,3
 Node,1253,LOBBY_74_Z236_COOLC-HEATCNODE,Air,6
 Node,1254,LOBBY_74_Z236_HEATC-FANNODE,Air,5
 Node,1255,LOBBY_74_Z236_SUPPLYEQUIPMENTOUTLETNODE,Air,3
 Node,1256,OFFICE_PRIVATE_74_Z237_SUPPLYINLET,Air,3
 Node,1257,OFFICE_PRIVATE_74_Z237_COOLC-HEATCNODE,Air,6
 Node,1258,OFFICE_PRIVATE_74_Z237_HEATC-FANNODE,Air,5
 Node,1259,OFFICE_PRIVATE_74_Z237_SUPPLYEQUIPMENTOUTLETNODE,Air,3
 Node,1260,LOBBY_76_Z238_SUPPLYINLET,Air,3
 Node,1261,LOBBY_76_Z238_COOLC-HEATCNODE,Air,6
 Node,1262,LOBBY_76_Z238_HEATC-FANNODE,Air,5
 Node,1263,LOBBY_76_Z238_SUPPLYEQUIPMENTOUTLETNODE,Air,3
 Node,1264,OFFICE_OPEN_76_Z239_SUPPLYINLET,Air,3
 Node,1265,OFFICE_OPEN_76_Z239_COOLC-HEATCNODE,Air,6
 Node,1266,OFFICE_OPEN_76_Z239_HEATC-FANNODE,Air,5
 Node,1267,OFFICE_OPEN_76_Z239_SUPPLYEQUIPMENTOUTLETNODE,Air,3
 Node,1268,OFFICE_PRIVATE_76_Z240_SUPPLYINLET,Air,3
 Node,1269,OFFICE_PRIVATE_76_Z240_COOLC-HEATCNODE,Air,6
 Node,1270,OFFICE_PRIVATE_76_Z240_HEATC-FANNODE,Air,5
 Node,1271,OFFICE_PRIVATE_76_Z240_SUPPLYEQUIPMENTOUTLETNODE,Air,3
 Node,1272,STORAGE_76_Z241_SUPPLYINLET,Air,3
 Node,1273,STORAGE_76_Z241_COOLC-HEATCNODE,Air,6
 Node,1274,STORAGE_76_Z241_HEATC-FANNODE,Air,5
 Node,1275,STORAGE_76_Z241_SUPPLYEQUIPMENTOUTLETNODE,Air,3
 Node,1276,MECHANICAL_77_Z242_SUPPLYINLET,Air,3
 Node,1277,MECHANICAL_77_Z242_COOLC-HEATCNODE,Air,6
 Node,1278,MECHANICAL_77_Z242_HEATC-FANNODE,Air,5
 Node,1279,MECHANICAL_77_Z242_SUPPLYEQUIPMENTOUTLETNODE,Air,3
 Node,1280,OFFICE_OPEN_77_Z243_SUPPLYINLET,Air,3
 Node,1281,OFFICE_OPEN_77_Z243_COOLC-HEATCNODE,Air,6
 Node,1282,OFFICE_OPEN_77_Z243_HEATC-FANNODE,Air,5
 Node,1283,OFFICE_OPEN_77_Z243_SUPPLYEQUIPMENTOUTLETNODE,Air,3
 Node,1284,OFFICE_PRIVATE_77_Z244_SUPPLYINLET,Air,3
 Node,1285,OFFICE_PRIVATE_77_Z244_COOLC-HEATCNODE,Air,6
 Node,1286,OFFICE_PRIVATE_77_Z244_HEATC-FANNODE,Air,5
 Node,1287,OFFICE_PRIVATE_77_Z244_SUPPLYEQUIPMENTOUTLETNODE,Air,3
 Node,1288,OFFICE_PRIVATE_78_Z245_SUPPLYINLET,Air,3
 Node,1289,OFFICE_PRIVATE_78_Z245_COOLC-HEATCNODE,Air,6
 Node,1290,OFFICE_PRIVATE_78_Z245_HEATC-FANNODE,Air,5
 Node,1291,OFFICE_PRIVATE_78_Z245_SUPPLYEQUIPMENTOUTLETNODE,Air,3
 Node,1292,CONFERENCE_79_Z246_SUPPLYINLET,Air,3
 Node,1293,CONFERENCE_79_Z246_COOLC-HEATCNODE,Air,6
 Node,1294,CONFERENCE_79_Z246_HEATC-FANNODE,Air,5
 Node,1295,CONFERENCE_79_Z246_SUPPLYEQUIPMENTOUTLETNODE,Air,3
 Node,1296,MECHANICAL_79_Z247_SUPPLYINLET,Air,3
 Node,1297,MECHANICAL_79_Z247_COOLC-HEATCNODE,Air,6
 Node,1298,MECHANICAL_79_Z247_HEATC-FANNODE,Air,5
 Node,1299,MECHANICAL_79_Z247_SUPPLYEQUIPMENTOUTLETNODE,Air,3
 Node,1300,OFFICE_PRIVATE_79_Z248_SUPPLYINLET,Air,3
 Node,1301,OFFICE_PRIVATE_79_Z248_COOLC-HEATCNODE,Air,6
 Node,1302,OFFICE_PRIVATE_79_Z248_HEATC-FANNODE,Air,5
 Node,1303,OFFICE_PRIVATE_79_Z248_SUPPLYEQUIPMENTOUTLETNODE,Air,3
 Node,1304,LOBBY_80_Z249_SUPPLYINLET,Air,3
 Node,1305,LOBBY_80_Z249_COOLC-HEATCNODE,Air,6
 Node,1306,LOBBY_80_Z249_HEATC-FANNODE,Air,5
 Node,1307,LOBBY_80_Z249_SUPPLYEQUIPMENTOUTLETNODE,Air,3
 Node,1308,MECHANICAL_80_Z250_SUPPLYINLET,Air,3
 Node,1309,MECHANICAL_80_Z250_COOLC-HEATCNODE,Air,6
 Node,1310,MECHANICAL_80_Z250_HEATC-FANNODE,Air,5
 Node,1311,MECHANICAL_80_Z250_SUPPLYEQUIPMENTOUTLETNODE,Air,3
 Node,1312,MECHANICAL_81_Z251_SUPPLYINLET,Air,3
 Node,1313,MECHANICAL_81_Z251_COOLC-HEATCNODE,Air,6
 Node,1314,MECHANICAL_81_Z251_HEATC-FANNODE,Air,5
 Node,1315,MECHANICAL_81_Z251_SUPPLYEQUIPMENTOUTLETNODE,Air,3
 Node,1316,STORAGE_81_Z252_SUPPLYINLET,Air,3
 Node,1317,STORAGE_81_Z252_COOLC-HEATCNODE,Air,6
 Node,1318,STORAGE_81_Z252_HEATC-FANNODE,Air,5
 Node,1319,STORAGE_81_Z252_SUPPLYEQUIPMENTOUTLETNODE,Air,3
 Node,1320,CONFERENCE_82_Z253_SUPPLYINLET,Air,3
 Node,1321,CONFERENCE_82_Z253_COOLC-HEATCNODE,Air,6
 Node,1322,CONFERENCE_82_Z253_HEATC-FANNODE,Air,5
 Node,1323,CONFERENCE_82_Z253_SUPPLYEQUIPMENTOUTLETNODE,Air,3
 Node,1324,MECHANICAL_82_Z254_SUPPLYINLET,Air,3
 Node,1325,MECHANICAL_82_Z254_COOLC-HEATCNODE,Air,6
 Node,1326,MECHANICAL_82_Z254_HEATC-FANNODE,Air,5
 Node,1327,MECHANICAL_82_Z254_SUPPLYEQUIPMENTOUTLETNODE,Air,3
 Node,1328,STORAGE_82_Z255_SUPPLYINLET,Air,3
 Node,1329,STORAGE_82_Z255_COOLC-HEATCNODE,Air,6
 Node,1330,STORAGE_82_Z255_HEATC-FANNODE,Air,5
 Node,1331,STORAGE_82_Z255_SUPPLYEQUIPMENTOUTLETNODE,Air,3
 Node,1332,LOBBY_83_Z256_SUPPLYINLET,Air,3
 Node,1333,LOBBY_83_Z256_COOLC-HEATCNODE,Air,6
 Node,1334,LOBBY_83_Z256_HEATC-FANNODE,Air,5
 Node,1335,LOBBY_83_Z256_SUPPLYEQUIPMENTOUTLETNODE,Air,3
 Node,1336,BREAK_ROOM_84_Z257_SUPPLYINLET,Air,3
 Node,1337,BREAK_ROOM_84_Z257_COOLC-HEATCNODE,Air,6
 Node,1338,BREAK_ROOM_84_Z257_HEATC-FANNODE,Air,5
 Node,1339,BREAK_ROOM_84_Z257_SUPPLYEQUIPMENTOUTLETNODE,Air,3
 Node,1340,OFFICE_PRIVATE_84_Z258_SUPPLYINLET,Air,3
 Node,1341,OFFICE_PRIVATE_84_Z258_COOLC-HEATCNODE,Air,6
 Node,1342,OFFICE_PRIVATE_84_Z258_HEATC-FANNODE,Air,5
 Node,1343,OFFICE_PRIVATE_84_Z258_SUPPLYEQUIPMENTOUTLETNODE,Air,3
 Node,1344,STORAGE_84_Z259_SUPPLYINLET,Air,3
 Node,1345,STORAGE_84_Z259_COOLC-HEATCNODE,Air,6
 Node,1346,STORAGE_84_Z259_HEATC-FANNODE,Air,5
 Node,1347,STORAGE_84_Z259_SUPPLYEQUIPMENTOUTLETNODE,Air,3
 Node,1348,LOBBY_85_Z260_SUPPLYINLET,Air,3
 Node,1349,LOBBY_85_Z260_COOLC-HEATCNODE,Air,6
 Node,1350,LOBBY_85_Z260_HEATC-FANNODE,Air,5
 Node,1351,LOBBY_85_Z260_SUPPLYEQUIPMENTOUTLETNODE,Air,3
 Node,1352,BREAK_ROOM_85_Z261_SUPPLYINLET,Air,3
 Node,1353,BREAK_ROOM_85_Z261_COOLC-HEATCNODE,Air,6
 Node,1354,BREAK_ROOM_85_Z261_HEATC-FANNODE,Air,5
 Node,1355,BREAK_ROOM_85_Z261_SUPPLYEQUIPMENTOUTLETNODE,Air,3
 Node,1356,MECHANICAL_85_Z262_SUPPLYINLET,Air,3
 Node,1357,MECHANICAL_85_Z262_COOLC-HEATCNODE,Air,6
 Node,1358,MECHANICAL_85_Z262_HEATC-FANNODE,Air,5
 Node,1359,MECHANICAL_85_Z262_SUPPLYEQUIPMENTOUTLETNODE,Air,3
 Node,1360,OFFICE_PRIVATE_85_Z263_SUPPLYINLET,Air,3
 Node,1361,OFFICE_PRIVATE_85_Z263_COOLC-HEATCNODE,Air,6
 Node,1362,OFFICE_PRIVATE_85_Z263_HEATC-FANNODE,Air,5
 Node,1363,OFFICE_PRIVATE_85_Z263_SUPPLYEQUIPMENTOUTLETNODE,Air,3
 Node,1364,STORAGE_85_Z264_SUPPLYINLET,Air,3
 Node,1365,STORAGE_85_Z264_COOLC-HEATCNODE,Air,6
 Node,1366,STORAGE_85_Z264_HEATC-FANNODE,Air,5
 Node,1367,STORAGE_85_Z264_SUPPLYEQUIPMENTOUTLETNODE,Air,3
 Node,1368,LOBBY_86_Z265_SUPPLYINLET,Air,3
 Node,1369,LOBBY_86_Z265_COOLC-HEATCNODE,Air,6
 Node,1370,LOBBY_86_Z265_HEATC-FANNODE,Air,5
 Node,1371,LOBBY_86_Z265_SUPPLYEQUIPMENTOUTLETNODE,Air,3
 Node,1372,MECHANICAL_86_Z266_SUPPLYINLET,Air,3
 Node,1373,MECHANICAL_86_Z266_COOLC-HEATCNODE,Air,6
 Node,1374,MECHANICAL_86_Z266_HEATC-FANNODE,Air,5
 Node,1375,MECHANICAL_86_Z266_SUPPLYEQUIPMENTOUTLETNODE,Air,3
 Node,1376,OFFICE_OPEN_86_Z267_SUPPLYINLET,Air,3
 Node,1377,OFFICE_OPEN_86_Z267_COOLC-HEATCNODE,Air,6
 Node,1378,OFFICE_OPEN_86_Z267_HEATC-FANNODE,Air,5
 Node,1379,OFFICE_OPEN_86_Z267_SUPPLYEQUIPMENTOUTLETNODE,Air,3
 Node,1380,OFFICE_PRIVATE_86_Z268_SUPPLYINLET,Air,3
 Node,1381,OFFICE_PRIVATE_86_Z268_COOLC-HEATCNODE,Air,6
 Node,1382,OFFICE_PRIVATE_86_Z268_HEATC-FANNODE,Air,5
 Node,1383,OFFICE_PRIVATE_86_Z268_SUPPLYEQUIPMENTOUTLETNODE,Air,3
 Node,1384,STORAGE_86_Z269_SUPPLYINLET,Air,3
 Node,1385,STORAGE_86_Z269_COOLC-HEATCNODE,Air,6
 Node,1386,STORAGE_86_Z269_HEATC-FANNODE,Air,5
 Node,1387,STORAGE_86_Z269_SUPPLYEQUIPMENTOUTLETNODE,Air,3
 Node,1388,CONFERENCE_87_Z270_SUPPLYINLET,Air,3
 Node,1389,CONFERENCE_87_Z270_COOLC-HEATCNODE,Air,6
 Node,1390,CONFERENCE_87_Z270_HEATC-FANNODE,Air,5
 Node,1391,CONFERENCE_87_Z270_SUPPLYEQUIPMENTOUTLETNODE,Air,3
 Node,1392,MECHANICAL_87_Z271_SUPPLYINLET,Air,3
 Node,1393,MECHANICAL_87_Z271_COOLC-HEATCNODE,Air,6
 Node,1394,MECHANICAL_87_Z271_HEATC-FANNODE,Air,5
 Node,1395,MECHANICAL_87_Z271_SUPPLYEQUIPMENTOUTLETNODE,Air,3
 Node,1396,OFFICE_OPEN_87_Z272_SUPPLYINLET,Air,3
 Node,1397,OFFICE_OPEN_87_Z272_COOLC-HEATCNODE,Air,6
 Node,1398,OFFICE_OPEN_87_Z272_HEATC-FANNODE,Air,5
 Node,1399,OFFICE_OPEN_87_Z272_SUPPLYEQUIPMENTOUTLETNODE,Air,3
 Node,1400,LOBBY_88_Z273_SUPPLYINLET,Air,3
 Node,1401,LOBBY_88_Z273_COOLC-HEATCNODE,Air,6
 Node,1402,LOBBY_88_Z273_HEATC-FANNODE,Air,5
 Node,1403,LOBBY_88_Z273_SUPPLYEQUIPMENTOUTLETNODE,Air,3
 Node,1404,CONFERENCE_88_Z274_SUPPLYINLET,Air,3
 Node,1405,CONFERENCE_88_Z274_COOLC-HEATCNODE,Air,6
 Node,1406,CONFERENCE_88_Z274_HEATC-FANNODE,Air,5
 Node,1407,CONFERENCE_88_Z274_SUPPLYEQUIPMENTOUTLETNODE,Air,3
 Node,1408,OFFICE_PRIVATE_88_Z275_SUPPLYINLET,Air,3
 Node,1409,OFFICE_PRIVATE_88_Z275_COOLC-HEATCNODE,Air,6
 Node,1410,OFFICE_PRIVATE_88_Z275_HEATC-FANNODE,Air,5
 Node,1411,OFFICE_PRIVATE_88_Z275_SUPPLYEQUIPMENTOUTLETNODE,Air,3
 Node,1412,STORAGE_88_Z276_SUPPLYINLET,Air,3
 Node,1413,STORAGE_88_Z276_COOLC-HEATCNODE,Air,6
 Node,1414,STORAGE_88_Z276_HEATC-FANNODE,Air,5
 Node,1415,STORAGE_88_Z276_SUPPLYEQUIPMENTOUTLETNODE,Air,3
 Node,1416,CONFERENCE_89_Z277_SUPPLYINLET,Air,3
 Node,1417,CONFERENCE_89_Z277_COOLC-HEATCNODE,Air,6
 Node,1418,CONFERENCE_89_Z277_HEATC-FANNODE,Air,5
 Node,1419,CONFERENCE_89_Z277_SUPPLYEQUIPMENTOUTLETNODE,Air,3
 Node,1420,BREAK_ROOM_89_Z278_SUPPLYINLET,Air,3
 Node,1421,BREAK_ROOM_89_Z278_COOLC-HEATCNODE,Air,6
 Node,1422,BREAK_ROOM_89_Z278_HEATC-FANNODE,Air,5
 Node,1423,BREAK_ROOM_89_Z278_SUPPLYEQUIPMENTOUTLETNODE,Air,3
 Node,1424,MECHANICAL_89_Z279_SUPPLYINLET,Air,3
 Node,1425,MECHANICAL_89_Z279_COOLC-HEATCNODE,Air,6
 Node,1426,MECHANICAL_89_Z279_HEATC-FANNODE,Air,5
 Node,1427,MECHANICAL_89_Z279_SUPPLYEQUIPMENTOUTLETNODE,Air,3
 Node,1428,OFFICE_OPEN_89_Z280_SUPPLYINLET,Air,3
 Node,1429,OFFICE_OPEN_89_Z280_COOLC-HEATCNODE,Air,6
 Node,1430,OFFICE_OPEN_89_Z280_HEATC-FANNODE,Air,5
 Node,1431,OFFICE_OPEN_89_Z280_SUPPLYEQUIPMENTOUTLETNODE,Air,3
 Node,1432,OFFICE_PRIVATE_89_Z281_SUPPLYINLET,Air,3
 Node,1433,OFFICE_PRIVATE_89_Z281_COOLC-HEATCNODE,Air,6
 Node,1434,OFFICE_PRIVATE_89_Z281_HEATC-FANNODE,Air,5
 Node,1435,OFFICE_PRIVATE_89_Z281_SUPPLYEQUIPMENTOUTLETNODE,Air,3
 Node,1436,STORAGE_89_Z282_SUPPLYINLET,Air,3
 Node,1437,STORAGE_89_Z282_COOLC-HEATCNODE,Air,6
 Node,1438,STORAGE_89_Z282_HEATC-FANNODE,Air,5
 Node,1439,STORAGE_89_Z282_SUPPLYEQUIPMENTOUTLETNODE,Air,3
 Node,1440,CONFERENCE_90_Z283_SUPPLYINLET,Air,3
 Node,1441,CONFERENCE_90_Z283_COOLC-HEATCNODE,Air,6
 Node,1442,CONFERENCE_90_Z283_HEATC-FANNODE,Air,5
 Node,1443,CONFERENCE_90_Z283_SUPPLYEQUIPMENTOUTLETNODE,Air,3
 Node,1444,OFFICE_OPEN_90_Z284_SUPPLYINLET,Air,3
 Node,1445,OFFICE_OPEN_90_Z284_COOLC-HEATCNODE,Air,6
 Node,1446,OFFICE_OPEN_90_Z284_HEATC-FANNODE,Air,5
 Node,1447,OFFICE_OPEN_90_Z284_SUPPLYEQUIPMENTOUTLETNODE,Air,3
 Node,1448,STORAGE_90_Z285_SUPPLYINLET,Air,3
 Node,1449,STORAGE_90_Z285_COOLC-HEATCNODE,Air,6
 Node,1450,STORAGE_90_Z285_HEATC-FANNODE,Air,5
 Node,1451,STORAGE_90_Z285_SUPPLYEQUIPMENTOUTLETNODE,Air,3
 Node,1452,LOBBY_91_Z286_SUPPLYINLET,Air,3
 Node,1453,LOBBY_91_Z286_COOLC-HEATCNODE,Air,6
 Node,1454,LOBBY_91_Z286_HEATC-FANNODE,Air,5
 Node,1455,LOBBY_91_Z286_SUPPLYEQUIPMENTOUTLETNODE,Air,3
 Node,1456,CONFERENCE_91_Z287_SUPPLYINLET,Air,3
 Node,1457,CONFERENCE_91_Z287_COOLC-HEATCNODE,Air,6
 Node,1458,CONFERENCE_91_Z287_HEATC-FANNODE,Air,5
 Node,1459,CONFERENCE_91_Z287_SUPPLYEQUIPMENTOUTLETNODE,Air,3
 Node,1460,MECHANICAL_91_Z288_SUPPLYINLET,Air,3
 Node,1461,MECHANICAL_91_Z288_COOLC-HEATCNODE,Air,6
 Node,1462,MECHANICAL_91_Z288_HEATC-FANNODE,Air,5
 Node,1463,MECHANICAL_91_Z288_SUPPLYEQUIPMENTOUTLETNODE,Air,3
 Node,1464,STORAGE_91_Z289_SUPPLYINLET,Air,3
 Node,1465,STORAGE_91_Z289_COOLC-HEATCNODE,Air,6
 Node,1466,STORAGE_91_Z289_HEATC-FANNODE,Air,5
 Node,1467,STORAGE_91_Z289_SUPPLYEQUIPMENTOUTLETNODE,Air,3
 Node,1468,LOBBY_92_Z290_SUPPLYINLET,Air,3
 Node,1469,LOBBY_92_Z290_COOLC-HEATCNODE,Air,6
 Node,1470,LOBBY_92_Z290_HEATC-FANNODE,Air,5
 Node,1471,LOBBY_92_Z290_SUPPLYEQUIPMENTOUTLETNODE,Air,3
 Node,1472,CONFERENCE_92_Z291_SUPPLYINLET,Air,3
 Node,1473,CONFERENCE_92_Z291_COOLC-HEATCNODE,Air,6
 Node,1474,CONFERENCE_92_Z291_HEATC-FANNODE,Air,5
 Node,1475,CONFERENCE_92_Z291_SUPPLYEQUIPMENTOUTLETNODE,Air,3
 Node,1476,OFFICE_PRIVATE_92_Z292_SUPPLYINLET,Air,3
 Node,1477,OFFICE_PRIVATE_92_Z292_COOLC-HEATCNODE,Air,6
 Node,1478,OFFICE_PRIVATE_92_Z292_HEATC-FANNODE,Air,5
 Node,1479,OFFICE_PRIVATE_92_Z292_SUPPLYEQUIPMENTOUTLETNODE,Air,3
 Node,1480,MECHANICAL_93_Z293_SUPPLYINLET,Air,3
 Node,1481,MECHANICAL_93_Z293_COOLC-HEATCNODE,Air,6
 Node,1482,MECHANICAL_93_Z293_HEATC-FANNODE,Air,5
 Node,1483,MECHANICAL_93_Z293_SUPPLYEQUIPMENTOUTLETNODE,Air,3
 Node,1484,OFFICE_PRIVATE_93_Z294_SUPPLYINLET,Air,3
 Node,1485,OFFICE_PRIVATE_93_Z294_COOLC-HEATCNODE,Air,6
 Node,1486,OFFICE_PRIVATE_93_Z294_HEATC-FANNODE,Air,5
 Node,1487,OFFICE_PRIVATE_93_Z294_SUPPLYEQUIPMENTOUTLETNODE,Air,3
 Node,1488,LOBBY_94_Z295_SUPPLYINLET,Air,3
 Node,1489,LOBBY_94_Z295_COOLC-HEATCNODE,Air,6
 Node,1490,LOBBY_94_Z295_HEATC-FANNODE,Air,5
 Node,1491,LOBBY_94_Z295_SUPPLYEQUIPMENTOUTLETNODE,Air,3
 Node,1492,BREAK_ROOM_94_Z296_SUPPLYINLET,Air,3
 Node,1493,BREAK_ROOM_94_Z296_COOLC-HEATCNODE,Air,6
 Node,1494,BREAK_ROOM_94_Z296_HEATC-FANNODE,Air,5
 Node,1495,BREAK_ROOM_94_Z296_SUPPLYEQUIPMENTOUTLETNODE,Air,3
 Node,1496,OFFICE_OPEN_94_Z297_SUPPLYINLET,Air,3
 Node,1497,OFFICE_OPEN_94_Z297_COOLC-HEATCNODE,Air,6
 Node,1498,OFFICE_OPEN_94_Z297_HEATC-FANNODE,Air,5
 Node,1499,OFFICE_OPEN_94_Z297_SUPPLYEQUIPMENTOUTLETNODE,Air,3
 Node,1500,OFFICE_PRIVATE_94_Z298_SUPPLYINLET,Air,3
 Node,1501,OFFICE_PRIVATE_94_Z298_COOLC-HEATCNODE,Air,6
 Node,1502,OFFICE_PRIVATE_94_Z298_HEATC-FANNODE,Air,5
 Node,1503,OFFICE_PRIVATE_94_Z298_SUPPLYEQUIPMENTOUTLETNODE,Air,3
 Node,1504,LOBBY_95_Z299_SUPPLYINLET,Air,3
 Node,1505,LOBBY_95_Z299_COOLC-HEATCNODE,Air,6
 Node,1506,LOBBY_95_Z299_HEATC-FANNODE,Air,5
 Node,1507,LOBBY_95_Z299_SUPPLYEQUIPMENTOUTLETNODE,Air,3
 Node,1508,CONFERENCE_95_Z300_SUPPLYINLET,Air,3
 Node,1509,CONFERENCE_95_Z300_COOLC-HEATCNODE,Air,6
 Node,1510,CONFERENCE_95_Z300_HEATC-FANNODE,Air,5
 Node,1511,CONFERENCE_95_Z300_SUPPLYEQUIPMENTOUTLETNODE,Air,3
 Node,1512,BREAK_ROOM_95_Z301_SUPPLYINLET,Air,3
 Node,1513,BREAK_ROOM_95_Z301_COOLC-HEATCNODE,Air,6
 Node,1514,BREAK_ROOM_95_Z301_HEATC-FANNODE,Air,5
 Node,1515,BREAK_ROOM_95_Z301_SUPPLYEQUIPMENTOUTLETNODE,Air,3
 Node,1516,MECHANICAL_95_Z302_SUPPLYINLET,Air,3
 Node,1517,MECHANICAL_95_Z302_COOLC-HEATCNODE,Air,6
 Node,1518,MECHANICAL_95_Z302_HEATC-FANNODE,Air,5
 Node,1519,MECHANICAL_95_Z302_SUPPLYEQUIPMENTOUTLETNODE,Air,3
 Node,1520,OFFICE_OPEN_95_Z303_SUPPLYINLET,Air,3
 Node,1521,OFFICE_OPEN_95_Z303_COOLC-HEATCNODE,Air,6
 Node,1522,OFFICE_OPEN_95_Z303_HEATC-FANNODE,Air,5
 Node,1523,OFFICE_OPEN_95_Z303_SUPPLYEQUIPMENTOUTLETNODE,Air,3
 Node,1524,STORAGE_95_Z304_SUPPLYINLET,Air,3
 Node,1525,STORAGE_95_Z304_COOLC-HEATCNODE,Air,6
 Node,1526,STORAGE_95_Z304_HEATC-FANNODE,Air,5
 Node,1527,STORAGE_95_Z304_SUPPLYEQUIPMENTOUTLETNODE,Air,3
 Node,1528,LOBBY_96_Z305_SUPPLYINLET,Air,3
 Node,1529,LOBBY_96_Z305_COOLC-HEATCNODE,Air,6
 Node,1530,LOBBY_96_Z305_HEATC-FANNODE,Air,5
 Node,1531,LOBBY_96_Z305_SUPPLYEQUIPMENTOUTLETNODE,Air,3
 Node,1532,BREAK_ROOM_96_Z306_SUPPLYINLET,Air,3
 Node,1533,BREAK_ROOM_96_Z306_COOLC-HEATCNODE,Air,6
 Node,1534,BREAK_ROOM_96_Z306_HEATC-FANNODE,Air,5
 Node,1535,BREAK_ROOM_96_Z306_SUPPLYEQUIPMENTOUTLETNODE,Air,3
 Node,1536,MECHANICAL_96_Z307_SUPPLYINLET,Air,3
 Node,1537,MECHANICAL_96_Z307_COOLC-HEATCNODE,Air,6
 Node,1538,MECHANICAL_96_Z307_HEATC-FANNODE,Air,5
 Node,1539,MECHANICAL_96_Z307_SUPPLYEQUIPMENTOUTLETNODE,Air,3
 Node,1540,OFFICE_PRIVATE_96_Z308_SUPPLYINLET,Air,3
 Node,1541,OFFICE_PRIVATE_96_Z308_COOLC-HEATCNODE,Air,6
 Node,1542,OFFICE_PRIVATE_96_Z308_HEATC-FANNODE,Air,5
 Node,1543,OFFICE_PRIVATE_96_Z308_SUPPLYEQUIPMENTOUTLETNODE,Air,3
 Node,1544,BREAK_ROOM_97_Z309_SUPPLYINLET,Air,3
 Node,1545,BREAK_ROOM_97_Z309_COOLC-HEATCNODE,Air,6
 Node,1546,BREAK_ROOM_97_Z309_HEATC-FANNODE,Air,5
 Node,1547,BREAK_ROOM_97_Z309_SUPPLYEQUIPMENTOUTLETNODE,Air,3
 Node,1548,OFFICE_PRIVATE_97_Z310_SUPPLYINLET,Air,3
 Node,1549,OFFICE_PRIVATE_97_Z310_COOLC-HEATCNODE,Air,6
 Node,1550,OFFICE_PRIVATE_97_Z310_HEATC-FANNODE,Air,5
 Node,1551,OFFICE_PRIVATE_97_Z310_SUPPLYEQUIPMENTOUTLETNODE,Air,3
 Node,1552,STORAGE_97_Z311_SUPPLYINLET,Air,3
 Node,1553,STORAGE_97_Z311_COOLC-HEATCNODE,Air,6
 Node,1554,STORAGE_97_Z311_HEATC-FANNODE,Air,5
 Node,1555,STORAGE_97_Z311_SUPPLYEQUIPMENTOUTLETNODE,Air,3
 Node,1556,CONFERENCE_0 AIR NODE,Air,0
 Node,1557,CONFERENCE_0_Z1_RETURNAIR,Air,1
 Node,1558,BREAK_ROOM_0 AIR NODE,Air,0
 Node,1559,BREAK_ROOM_0_Z2_RETURNAIR,Air,1
 Node,1560,STORAGE_0 AIR NODE,Air,0
 Node,1561,STORAGE_0_Z3_RETURNAIR,Air,1
 Node,1562,LOBBY_1 AIR NODE,Air,0
 Node,1563,LOBBY_1_Z4_RETURNAIR,Air,1
 Node,1564,BREAK_ROOM_1 AIR NODE,Air,0
 Node,1565,BREAK_ROOM_1_Z5_RETURNAIR,Air,1
 Node,1566,OFFICE_OPEN_1 AIR NODE,Air,0
 Node,1567,OFFICE_OPEN_1_Z6_RETURNAIR,Air,1
 Node,1568,OFFICE_PRIVATE_1 AIR NODE,Air,0
 Node,1569,OFFICE_PRIVATE_1_Z7_RETURNAIR,Air,1
 Node,1570,STORAGE_1 AIR NODE,Air,0
 Node,1571,STORAGE_1_Z8_RETURNAIR,Air,1
 Node,1572,STORAGE_2 AIR NODE,Air,0
 Node,1573,STORAGE_2_Z9_RETURNAIR,Air,1
 Node,1574,LOBBY_3 AIR NODE,Air,0
 Node,1575,LOBBY_3_Z10_RETURNAIR,Air,1
 Node,1576,BREAK_ROOM_3 AIR NODE,Air,0
 Node,1577,BREAK_ROOM_3_Z11_RETURNAIR,Air,1
 Node,1578,MECHANICAL_3 AIR NODE,Air,0
 Node,1579,MECHANICAL_3_Z12_RETURNAIR,Air,1
 Node,1580,OFFICE_PRIVATE_3 AIR NODE,Air,0
 Node,1581,OFFICE_PRIVATE_3_Z13_RETURNAIR,Air,1
 Node,1582,LOBBY_4 AIR NODE,Air,0
 Node,1583,LOBBY_4_Z14_RETURNAIR,Air,1
 Node,1584,BREAK_ROOM_4 AIR NODE,Air,0
 Node,1585,BREAK_ROOM_4_Z15_RETURNAIR,Air,1
 Node,1586,OFFICE_OPEN_4 AIR NODE,Air,0
 Node,1587,OFFICE_OPEN_4_Z16_RETURNAIR,Air,1
 Node,1588,OFFICE_PRIVATE_4 AIR NODE,Air,0
 Node,1589,OFFICE_PRIVATE_4_Z17_RETURNAIR,Air,1
 Node,1590,STORAGE_4 AIR NODE,Air,0
 Node,1591,STORAGE_4_Z18_RETURNAIR,Air,1
 Node,1592,LOBBY_5 AIR NODE,Air,0
 Node,1593,LOBBY_5_Z19_RETURNAIR,Air,1
[...]
 Non-Parent Node Connection,MECHANICAL_71_Z227_SUPPLYINLET,COIL:COOLING:DX:SINGLESPEED,MECHANICAL_71_Z227_COOLINGCOILDX,Inlet,1
 Non-Parent Node Connection,MECHANICAL_71_Z227_COOLC-HEATCNODE,COIL:COOLING:DX:SINGLESPEED,MECHANICAL_71_Z227_COOLINGCOILDX,Outlet,1
 Non-Parent Node Connection,STORAGE_71_Z228_SUPPLYINLET,COIL:COOLING:DX:SINGLESPEED,STORAGE_71_Z228_COOLINGCOILDX,Inlet,1
 Non-Parent Node Connection,STORAGE_71_Z228_COOLC-HEATCNODE,COIL:COOLING:DX:SINGLESPEED,STORAGE_71_Z228_COOLINGCOILDX,Outlet,1
 Non-Parent Node Connection,LOBBY_72_Z229_SUPPLYINLET,COIL:COOLING:DX:SINGLESPEED,LOBBY_72_Z229_COOLINGCOILDX,Inlet,1
 Non-Parent Node Connection,LOBBY_72_Z229_COOLC-HEATCNODE,COIL:COOLING:DX:SINGLESPEED,LOBBY_72_Z229_COOLINGCOILDX,Outlet,1
 Non-Parent Node Connection,BREAK_ROOM_72_Z230_SUPPLYINLET,COIL:COOLING:DX:SINGLESPEED,BREAK_ROOM_72_Z230_COOLINGCOILDX,Inlet,1
 Non-Parent Node Connection,BREAK_ROOM_72_Z230_COOLC-HEATCNODE,COIL:COOLING:DX:SINGLESPEED,BREAK_ROOM_72_Z230_COOLINGCOILDX,Outlet,1
 Non-Parent Node Connection,OFFICE_PRIVATE_72_Z231_SUPPLYINLET,COIL:COOLING:DX:SINGLESPEED,OFFICE_PRIVATE_72_Z231_COOLINGCOILDX,Inlet,1
 Non-Parent Node Connection,OFFICE_PRIVATE_72_Z231_COOLC-HEATCNODE,COIL:COOLING:DX:SINGLESPEED,OFFICE_PRIVATE_72_Z231_COOLINGCOILDX,Outlet,1
 Non-Parent Node Connection,LOBBY_73_Z232_SUPPLYINLET,COIL:COOLING:DX:SINGLESPEED,LOBBY_73_Z232_COOLINGCOILDX,Inlet,1
 Non-Parent Node Connection,LOBBY_73_Z232_COOLC-HEATCNODE,COIL:COOLING:DX:SINGLESPEED,LOBBY_73_Z232_COOLINGCOILDX,Outlet,1
 Non-Parent Node Connection,CONFERENCE_73_Z233_SUPPLYINLET,COIL:COOLING:DX:SINGLESPEED,CONFERENCE_73_Z233_COOLINGCOILDX,Inlet,1
 Non-Parent Node Connection,CONFERENCE_73_Z233_COOLC-HEATCNODE,COIL:COOLING:DX:SINGLESPEED,CONFERENCE_73_Z233_COOLINGCOILDX,Outlet,1
 Non-Parent Node Connection,MECHANICAL_73_Z234_SUPPLYINLET,COIL:COOLING:DX:SINGLESPEED,MECHANICAL_73_Z234_COOLINGCOILDX,Inlet,1
 Non-Parent Node Connection,MECHANICAL_73_Z234_COOLC-HEATCNODE,COIL:COOLING:DX:SINGLESPEED,MECHANICAL_73_Z234_COOLINGCOILDX,Outlet,1
 Non-Parent Node Connection,STORAGE_73_Z235_SUPPLYINLET,COIL:COOLING:DX:SINGLESPEED,STORAGE_73_Z235_COOLINGCOILDX,Inlet,1
 Non-Parent Node Connection,STORAGE_73_Z235_COOLC-HEATCNODE,COIL:COOLING:DX:SINGLESPEED,STORAGE_73_Z235_COOLINGCOILDX,Outlet,1
 Non-Parent Node Connection,LOBBY_74_Z236_SUPPLYINLET,COIL:COOLING:DX:SINGLESPEED,LOBBY_74_Z236_COOLINGCOILDX,Inlet,1
 Non-Parent Node Connection,LOBBY_74_Z236_COOLC-HEATCNODE,COIL:COOLING:DX:SINGLESPEED,LOBBY_74_Z236_COOLINGCOILDX,Outlet,1
 Non-Parent Node Connection,OFFICE_PRIVATE_74_Z237_SUPPLYINLET,COIL:COOLING:DX:SINGLESPEED,OFFICE_PRIVATE_74_Z237_COOLINGCOILDX,Inlet,1
 Non-Parent Node Connection,OFFICE_PRIVATE_74_Z237_COOLC-HEATCNODE,COIL:COOLING:DX:SINGLESPEED,OFFICE_PRIVATE_74_Z237_COOLINGCOILDX,Outlet,1
 Non-Parent Node Connection,LOBBY_76_Z238_SUPPLYINLET,COIL:COOLING:DX:SINGLESPEED,LOBBY_76_Z238_COOLINGCOILDX,Inlet,1
 Non-Parent Node Connection,LOBBY_76_Z238_COOLC-HEATCNODE,COIL:COOLING:DX:SINGLESPEED,LOBBY_76_Z238_COOLINGCOILDX,Outlet,1
 Non-Parent Node Connection,OFFICE_OPEN_76_Z239_SUPPLYINLET,COIL:COOLING:DX:SINGLESPEED,OFFICE_OPEN_76_Z239_COOLINGCOILDX,Inlet,1
 Non-Parent Node Connection,OFFICE_OPEN_76_Z239_COOLC-HEATCNODE,COIL:COOLING:DX:SINGLESPEED,OFFICE_OPEN_76_Z239_COOLINGCOILDX,Outlet,1
 Non-Parent Node Connection,OFFICE_PRIVATE_76_Z240_SUPPLYINLET,COIL:COOLING:DX:SINGLESPEED,OFFICE_PRIVATE_76_Z240_COOLINGCOILDX,Inlet,1
 Non-Parent Node Connection,OFFICE_PRIVATE_76_Z240_COOLC-HEATCNODE,COIL:COOLING:DX:SINGLESPEED,OFFICE_PRIVATE_76_Z240_COOLINGCOILDX,Outlet,1
 Non-Parent Node Connection,STORAGE_76_Z241_SUPPLYINLET,COIL:COOLING:DX:SINGLESPEED,STORAGE_76_Z241_COOLINGCOILDX,Inlet,1
 Non-Parent Node Connection,STORAGE_76_Z241_COOLC-HEATCNODE,COIL:COOLING:DX:SINGLESPEED,STORAGE_76_Z241_COOLINGCOILDX,Outlet,1
 Non-Parent Node Connection,MECHANICAL_77_Z242_SUPPLYINLET,COIL:COOLING:DX:SINGLESPEED,MECHANICAL_77_Z242_COOLINGCOILDX,Inlet,1
 Non-Parent Node Connection,MECHANICAL_77_Z242_COOLC-HEATCNODE,COIL:COOLING:DX:SINGLESPEED,MECHANICAL_77_Z242_COOLINGCOILDX,Outlet,1
 Non-Parent Node Connection,OFFICE_OPEN_77_Z243_SUPPLYINLET,COIL:COOLING:DX:SINGLESPEED,OFFICE_OPEN_77_Z243_COOLINGCOILDX,Inlet,1
 Non-Parent Node Connection,OFFICE_OPEN_77_Z243_COOLC-HEATCNODE,COIL:COOLING:DX:SINGLESPEED,OFFICE_OPEN_77_Z243_COOLINGCOILDX,Outlet,1
 Non-Parent Node Connection,OFFICE_PRIVATE_77_Z244_SUPPLYINLET,COIL:COOLING:DX:SINGLESPEED,OFFICE_PRIVATE_77_Z244_COOLINGCOILDX,Inlet,1
 Non-Parent Node Connection,OFFICE_PRIVATE_77_Z244_COOLC-HEATCNODE,COIL:COOLING:DX:SINGLESPEED,OFFICE_PRIVATE_77_Z244_COOLINGCOILDX,Outlet,1
 Non-Parent Node Connection,OFFICE_PRIVATE_78_Z245_SUPPLYINLET,COIL:COOLING:DX:SINGLESPEED,OFFICE_PRIVATE_78_Z245_COOLINGCOILDX,Inlet,1
 Non-Parent Node Connection,OFFICE_PRIVATE_78_Z245_COOLC-HEATCNODE,COIL:COOLING:DX:SINGLESPEED,OFFICE_PRIVATE_78_Z245_COOLINGCOILDX,Outlet,1
 Non-Parent Node Connection,CONFERENCE_79_Z246_SUPPLYINLET,COIL:COOLING:DX:SINGLESPEED,CONFERENCE_79_Z246_COOLINGCOILDX,Inlet,1
 Non-Parent Node Connection,CONFERENCE_79_Z246_COOLC-HEATCNODE,COIL:COOLING:DX:SINGLESPEED,CONFERENCE_79_Z246_COOLINGCOILDX,Outlet,1
 Non-Parent Node Connection,MECHANICAL_79_Z247_SUPPLYINLET,COIL:COOLING:DX:SINGLESPEED,MECHANICAL_79_Z247_COOLINGCOILDX,Inlet,1
 Non-Parent Node Connection,MECHANICAL_79_Z247_COOLC-HEATCNODE,COIL:COOLING:DX:SINGLESPEED,MECHANICAL_79_Z247_COOLINGCOILDX,Outlet,1
 Non-Parent Node Connection,OFFICE_PRIVATE_79_Z248_SUPPLYINLET,COIL:COOLING:DX:SINGLESPEED,OFFICE_PRIVATE_79_Z248_COOLINGCOILDX,Inlet,1
 Non-Parent Node Connection,OFFICE_PRIVATE_79_Z248_COOLC-HEATCNODE,COIL:COOLING:DX:SINGLESPEED,OFFICE_PRIVATE_79_Z248_COOLINGCOILDX,Outlet,1
 Non-Parent Node Connection,LOBBY_80_Z249_SUPPLYINLET,COIL:COOLING:DX:SINGLESPEED,LOBBY_80_Z249_COOLINGCOILDX,Inlet,1
 Non-Parent Node Connection,LOBBY_80_Z249_COOLC-HEATCNODE,COIL:COOLING:DX:SINGLESPEED,LOBBY_80_Z249_COOLINGCOILDX,Outlet,1
 Non-Parent Node Connection,MECHANICAL_80_Z250_SUPPLYINLET,COIL:COOLING:DX:SINGLESPEED,MECHANICAL_80_Z250_COOLINGCOILDX,Inlet,1
 Non-Parent Node Connection,MECHANICAL_80_Z250_COOLC-HEATCNODE,COIL:COOLING:DX:SINGLESPEED,MECHANICAL_80_Z250_COOLINGCOILDX,Outlet,1
 Non-Parent Node Connection,MECHANICAL_81_Z251_SUPPLYINLET,COIL:COOLING:DX:SINGLESPEED,MECHANICAL_81_Z251_COOLINGCOILDX,Inlet,1
 Non-Parent Node Connection,MECHANICAL_81_Z251_COOLC-HEATCNODE,COIL:COOLING:DX:SINGLESPEED,MECHANICAL_81_Z251_COOLINGCOILDX,Outlet,1
 Non-Parent Node Connection,STORAGE_81_Z252_SUPPLYINLET,COIL:COOLING:DX:SINGLESPEED,STORAGE_81_Z252_COOLINGCOILDX,Inlet,1
 Non-Parent Node Connection,STORAGE_81_Z252_COOLC-HEATCNODE,COIL:COOLING:DX:SINGLESPEED,STORAGE_81_Z252_COOLINGCOILDX,Outlet,1
 Non-Parent Node Connection,CONFERENCE_82_Z253_SUPPLYINLET,COIL:COOLING:DX:SINGLESPEED,CONFERENCE_82_Z253_COOLINGCOILDX,Inlet,1
 Non-Parent Node Connection,CONFERENCE_82_Z253_COOLC-HEATCNODE,COIL:COOLING:DX:SINGLESPEED,CONFERENCE_82_Z253_COOLINGCOILDX,Outlet,1
 Non-Parent Node Connection,MECHANICAL_82_Z254_SUPPLYINLET,COIL:COOLING:DX:SINGLESPEED,MECHANICAL_82_Z254_COOLINGCOILDX,Inlet,1
 Non-Parent Node Connection,MECHANICAL_82_Z254_COOLC-HEATCNODE,COIL:COOLING:DX:SINGLESPEED,MECHANICAL_82_Z254_COOLINGCOILDX,Outlet,1
 Non-Parent Node Connection,STORAGE_82_Z255_SUPPLYINLET,COIL:COOLING:DX:SINGLESPEED,STORAGE_82_Z255_COOLINGCOILDX,Inlet,1
 Non-Parent Node Connection,STORAGE_82_Z255_COOLC-HEATCNODE,COIL:COOLING:DX:SINGLESPEED,STORAGE_82_Z255_COOLINGCOILDX,Outlet,1
 Non-Parent Node Connection,LOBBY_83_Z256_SUPPLYINLET,COIL:COOLING:DX:SINGLESPEED,LOBBY_83_Z256_COOLINGCOILDX,Inlet,1
 Non-Parent Node Connection,LOBBY_83_Z256_COOLC-HEATCNODE,COIL:COOLING:DX:SINGLESPEED,LOBBY_83_Z256_COOLINGCOILDX,Outlet,1
 Non-Parent Node Connection,BREAK_ROOM_84_Z257_SUPPLYINLET,COIL:COOLING:DX:SINGLESPEED,BREAK_ROOM_84_Z257_COOLINGCOILDX,Inlet,1
 Non-Parent Node Connection,BREAK_ROOM_84_Z257_COOLC-HEATCNODE,COIL:COOLING:DX:SINGLESPEED,BREAK_ROOM_84_Z257_COOLINGCOILDX,Outlet,1
 Non-Parent Node Connection,OFFICE_PRIVATE_84_Z258_SUPPLYINLET,COIL:COOLING:DX:SINGLESPEED,OFFICE_PRIVATE_84_Z258_COOLINGCOILDX,Inlet,1
 Non-Parent Node Connection,OFFICE_PRIVATE_84_Z258_COOLC-HEATCNODE,COIL:COOLING:DX:SINGLESPEED,OFFICE_PRIVATE_84_Z258_COOLINGCOILDX,Outlet,1
 Non-Parent Node Connection,STORAGE_84_Z259_SUPPLYINLET,COIL:COOLING:DX:SINGLESPEED,STORAGE_84_Z259_COOLINGCOILDX,Inlet,1
 Non-Parent Node Connection,STORAGE_84_Z259_COOLC-HEATCNODE,COIL:COOLING:DX:SINGLESPEED,STORAGE_84_Z259_COOLINGCOILDX,Outlet,1
 Non-Parent Node Connection,LOBBY_85_Z260_SUPPLYINLET,COIL:COOLING:DX:SINGLESPEED,LOBBY_85_Z260_COOLINGCOILDX,Inlet,1
 Non-Parent Node Connection,LOBBY_85_Z260_COOLC-HEATCNODE,COIL:COOLING:DX:SINGLESPEED,LOBBY_85_Z260_COOLINGCOILDX,Outlet,1
 Non-Parent Node Connection,BREAK_ROOM_85_Z261_SUPPLYINLET,COIL:COOLING:DX:SINGLESPEED,BREAK_ROOM_85_Z261_COOLINGCOILDX,Inlet,1
 Non-Parent Node Connection,BREAK_ROOM_85_Z261_COOLC-HEATCNODE,COIL:COOLING:DX:SINGLESPEED,BREAK_ROOM_85_Z261_COOLINGCOILDX,Outlet,1
 Non-Parent Node Connection,MECHANICAL_85_Z262_SUPPLYINLET,COIL:COOLING:DX:SINGLESPEED,MECHANICAL_85_Z262_COOLINGCOILDX,Inlet,1
 Non-Parent Node Connection,MECHANICAL_85_Z262_COOLC-HEATCNODE,COIL:COOLING:DX:SINGLESPEED,MECHANICAL_85_Z262_COOLINGCOILDX,Outlet,1
 Non-Parent Node Connection,OFFICE_PRIVATE_85_Z263_SUPPLYINLET,COIL:COOLING:DX:SINGLESPEED,OFFICE_PRIVATE_85_Z263_COOLINGCOILDX,Inlet,1
 Non-Parent Node Connection,OFFICE_PRIVATE_85_Z263_COOLC-HEATCNODE,COIL:COOLING:DX:SINGLESPEED,OFFICE_PRIVATE_85_Z263_COOLINGCOILDX,Outlet,1
 Non-Parent Node Connection,STORAGE_85_Z264_SUPPLYINLET,COIL:COOLING:DX:SINGLESPEED,STORAGE_85_Z264_COOLINGCOILDX,Inlet,1
 Non-Parent Node Connection,STORAGE_85_Z264_COOLC-HEATCNODE,COIL:COOLING:DX:SINGLESPEED,STORAGE_85_Z264_COOLINGCOILDX,Outlet,1
 Non-Parent Node Connection,LOBBY_86_Z265_SUPPLYINLET,COIL:COOLING:DX:SINGLESPEED,LOBBY_86_Z265_COOLINGCOILDX,Inlet,1
 Non-Parent Node Connection,LOBBY_86_Z265_COOLC-HEATCNODE,COIL:COOLING:DX:SINGLESPEED,LOBBY_86_Z265_COOLINGCOILDX,Outlet,1
 Non-Parent Node Connection,MECHANICAL_86_Z266_SUPPLYINLET,COIL:COOLING:DX:SINGLESPEED,MECHANICAL_86_Z266_COOLINGCOILDX,Inlet,1
 Non-Parent Node Connection,MECHANICAL_86_Z266_COOLC-HEATCNODE,COIL:COOLING:DX:SINGLESPEED,MECHANICAL_86_Z266_COOLINGCOILDX,Outlet,1
 Non-Parent Node Connection,OFFICE_OPEN_86_Z267_SUPPLYINLET,COIL:COOLING:DX:SINGLESPEED,OFFICE_OPEN_86_Z267_COOLINGCOILDX,Inlet,1
 Non-Parent Node Connection,OFFICE_OPEN_86_Z267_COOLC-HEATCNODE,COIL:COOLING:DX:SINGLESPEED,OFFICE_OPEN_86_Z267_COOLINGCOILDX,Outlet,1
 Non-Parent Node Connection,OFFICE_PRIVATE_86_Z268_SUPPLYINLET,COIL:COOLING:DX:SINGLESPEED,OFFICE_PRIVATE_86_Z268_COOLINGCOILDX,Inlet,1
 Non-Parent Node Connection,OFFICE_PRIVATE_86_Z268_COOLC-HEATCNODE,COIL:COOLING:DX:SINGLESPEED,OFFICE_PRIVATE_86_Z268_COOLINGCOILDX,Outlet,1
 Non-Parent Node Connection,STORAGE_86_Z269_SUPPLYINLET,COIL:COOLING:DX:SINGLESPEED,STORAGE_86_Z269_COOLINGCOILDX,Inlet,1
 Non-Parent Node Connection,STORAGE_86_Z269_COOLC-HEATCNODE,COIL:COOLING:DX:SINGLESPEED,STORAGE_86_Z269_COOLINGCOILDX,Outlet,1
 Non-Parent Node Connection,CONFERENCE_87_Z270_SUPPLYINLET,COIL:COOLING:DX:SINGLESPEED,CONFERENCE_87_Z270_COOLINGCOILDX,Inlet,1
 Non-Parent Node Connection,CONFERENCE_87_Z270_COOLC-HEATCNODE,COIL:COOLING:DX:SINGLESPEED,CONFERENCE_87_Z270_COOLINGCOILDX,Outlet,1
 Non-Parent Node Connection,MECHANICAL_87_Z271_SUPPLYINLET,COIL:COOLING:DX:SINGLESPEED,MECHANICAL_87_Z271_COOLINGCOILDX,Inlet,1
 Non-Parent Node Connection,MECHANICAL_87_Z271_COOLC-HEATCNODE,COIL:COOLING:DX:SINGLESPEED,MECHANICAL_87_Z271_COOLINGCOILDX,Outlet,1
 Non-Parent Node Connection,OFFICE_OPEN_87_Z272_SUPPLYINLET,COIL:COOLING:DX:SINGLESPEED,OFFICE_OPEN_87_Z272_COOLINGCOILDX,Inlet,1
 Non-Parent Node Connection,OFFICE_OPEN_87_Z272_COOLC-HEATCNODE,COIL:COOLING:DX:SINGLESPEED,OFFICE_OPEN_87_Z272_COOLINGCOILDX,Outlet,1
 Non-Parent Node Connection,LOBBY_88_Z273_SUPPLYINLET,COIL:COOLING:DX:SINGLESPEED,LOBBY_88_Z273_COOLINGCOILDX,Inlet,1
 Non-Parent Node Connection,LOBBY_88_Z273_COOLC-HEATCNODE,COIL:COOLING:DX:SINGLESPEED,LOBBY_88_Z273_COOLINGCOILDX,Outlet,1
 Non-Parent Node Connection,CONFERENCE_88_Z274_SUPPLYINLET,COIL:COOLING:DX:SINGLESPEED,CONFERENCE_88_Z274_COOLINGCOILDX,Inlet,1
 Non-Parent Node Connection,CONFERENCE_88_Z274_COOLC-HEATCNODE,COIL:COOLING:DX:SINGLESPEED,CONFERENCE_88_Z274_COOLINGCOILDX,Outlet,1
 Non-Parent Node Connection,OFFICE_PRIVATE_88_Z275_SUPPLYINLET,COIL:COOLING:DX:SINGLESPEED,OFFICE_PRIVATE_88_Z275_COOLINGCOILDX,Inlet,1
 Non-Parent Node Connection,OFFICE_PRIVATE_88_Z275_COOLC-HEATCNODE,COIL:COOLING:DX:SINGLESPEED,OFFICE_PRIVATE_88_Z275_COOLINGCOILDX,Outlet,1
 Non-Parent Node Connection,STORAGE_88_Z276_SUPPLYINLET,COIL:COOLING:DX:SINGLESPEED,STORAGE_88_Z276_COOLINGCOILDX,Inlet,1
 Non-Parent Node Connection,STORAGE_88_Z276_COOLC-HEATCNODE,COIL:COOLING:DX:SINGLESPEED,STORAGE_88_Z276_COOLINGCOILDX,Outlet,1
 Non-Parent Node Connection,CONFERENCE_89_Z277_SUPPLYINLET,COIL:COOLING:DX:SINGLESPEED,CONFERENCE_89_Z277_COOLINGCOILDX,Inlet,1
 Non-Parent Node Connection,CONFERENCE_89_Z277_COOLC-HEATCNODE,COIL:COOLING:DX:SINGLESPEED,CONFERENCE_89_Z277_COOLINGCOILDX,Outlet,1
 Non-Parent Node Connection,BREAK_ROOM_89_Z278_SUPPLYINLET,COIL:COOLING:DX:SINGLESPEED,BREAK_ROOM_89_Z278_COOLINGCOILDX,Inlet,1
 Non-Parent Node Connection,BREAK_ROOM_89_Z278_COOLC-HEATCNODE,COIL:COOLING:DX:SINGLESPEED,BREAK_ROOM_89_Z278_COOLINGCOILDX,Outlet,1
 Non-Parent Node Connection,MECHANICAL_89_Z279_SUPPLYINLET,COIL:COOLING:DX:SINGLESPEED,MECHANICAL_89_Z279_COOLINGCOILDX,Inlet,1
 Non-Parent Node Connection,MECHANICAL_89_Z279_COOLC-HEATCNODE,COIL:COOLING:DX:SINGLESPEED,MECHANICAL_89_Z279_COOLINGCOILDX,Outlet,1
 Non-Parent Node Connection,OFFICE_OPEN_89_Z280_SUPPLYINLET,COIL:COOLING:DX:SINGLESPEED,OFFICE_OPEN_89_Z280_COOLINGCOILDX,Inlet,1
 Non-Parent Node Connection,OFFICE_OPEN_89_Z280_COOLC-HEATCNODE,COIL:COOLING:DX:SINGLESPEED,OFFICE_OPEN_89_Z280_COOLINGCOILDX,Outlet,1
 Non-Parent Node Connection,OFFICE_PRIVATE_89_Z281_SUPPLYINLET,COIL:COOLING:DX:SINGLESPEED,OFFICE_PRIVATE_89_Z281_COOLINGCOILDX,Inlet,1
 Non-Parent Node Connection,OFFICE_PRIVATE_89_Z281_COOLC-HEATCNODE,COIL:COOLING:DX:SINGLESPEED,OFFICE_PRIVATE_89_Z281_COOLINGCOILDX,Outlet,1
 Non-Parent Node Connection,STORAGE_89_Z282_SUPPLYINLET,COIL:COOLING:DX:SINGLESPEED,STORAGE_89_Z282_COOLINGCOILDX,Inlet,1
 Non-Parent Node Connection,STORAGE_89_Z282_COOLC-HEATCNODE,COIL:COOLING:DX:SINGLESPEED,STORAGE_89_Z282_COOLINGCOILDX,Outlet,1
 Non-Parent Node Connection,CONFERENCE_90_Z283_SUPPLYINLET,COIL:COOLING:DX:SINGLESPEED,CONFERENCE_90_Z283_COOLINGCOILDX,Inlet,1
 Non-Parent Node Connection,CONFERENCE_90_Z283_COOLC-HEATCNODE,COIL:COOLING:DX:SINGLESPEED,CONFERENCE_90_Z283_COOLINGCOILDX,Outlet,1
 Non-Parent Node Connection,OFFICE_OPEN_90_Z284_SUPPLYINLET,COIL:COOLING:DX:SINGLESPEED,OFFICE_OPEN_90_Z284_COOLINGCOILDX,Inlet,1
 Non-Parent Node Connection,OFFICE_OPEN_90_Z284_COOLC-HEATCNODE,COIL:COOLING:DX:SINGLESPEED,OFFICE_OPEN_90_Z284_COOLINGCOILDX,Outlet,1
 Non-Parent Node Connection,STORAGE_90_Z285_SUPPLYINLET,COIL:COOLING:DX:SINGLESPEED,STORAGE_90_Z285_COOLINGCOILDX,Inlet,1
 Non-Parent Node Connection,STORAGE_90_Z285_COOLC-HEATCNODE,COIL:COOLING:DX:SINGLESPEED,STORAGE_90_Z285_COOLINGCOILDX,Outlet,1
 Non-Parent Node Connection,LOBBY_91_Z286_SUPPLYINLET,COIL:COOLING:DX:SINGLESPEED,LOBBY_91_Z286_COOLINGCOILDX,Inlet,1
 Non-Parent Node Connection,LOBBY_91_Z286_COOLC-HEATCNODE,COIL:COOLING:DX:SINGLESPEED,LOBBY_91_Z286_COOLINGCOILDX,Outlet,1
 Non-Parent Node Connection,CONFERENCE_91_Z287_SUPPLYINLET,COIL:COOLING:DX:SINGLESPEED,CONFERENCE_91_Z287_COOLINGCOILDX,Inlet,1
 Non-Parent Node Connection,CONFERENCE_91_Z287_COOLC-HEATCNODE,COIL:COOLING:DX:SINGLESPEED,CONFERENCE_91_Z287_COOLINGCOILDX,Outlet,1
 Non-Parent Node Connection,MECHANICAL_91_Z288_SUPPLYINLET,COIL:COOLING:DX:SINGLESPEED,MECHANICAL_91_Z288_COOLINGCOILDX,Inlet,1
 Non-Parent Node Connection,MECHANICAL_91_Z288_COOLC-HEATCNODE,COIL:COOLING:DX:SINGLESPEED,MECHANICAL_91_Z288_COOLINGCOILDX,Outlet,1
 Non-Parent Node Connection,STORAGE_91_Z289_SUPPLYINLET,COIL:COOLING:DX:SINGLESPEED,STORAGE_91_Z289_COOLINGCOILDX,Inlet,1
 Non-Parent Node Connection,STORAGE_91_Z289_COOLC-HEATCNODE,COIL:COOLING:DX:SINGLESPEED,STORAGE_91_Z289_COOLINGCOILDX,Outlet,1
 Non-Parent Node Connection,LOBBY_92_Z290_SUPPLYINLET,COIL:COOLING:DX:SINGLESPEED,LOBBY_92_Z290_COOLINGCOILDX,Inlet,1
 Non-Parent Node Connection,LOBBY_92_Z290_COOLC-HEATCNODE,COIL:COOLING:DX:SINGLESPEED,LOBBY_92_Z290_COOLINGCOILDX,Outlet,1
 Non-Parent Node Connection,CONFERENCE_92_Z291_SUPPLYINLET,COIL:COOLING:DX:SINGLESPEED,CONFERENCE_92_Z291_COOLINGCOILDX,Inlet,1
 Non-Parent Node Connection,CONFERENCE_92_Z291_COOLC-HEATCNODE,COIL:COOLING:DX:SINGLESPEED,CONFERENCE_92_Z291_COOLINGCOILDX,Outlet,1
 Non-Parent Node Connection,OFFICE_PRIVATE_92_Z292_SUPPLYINLET,COIL:COOLING:DX:SINGLESPEED,OFFICE_PRIVATE_92_Z292_COOLINGCOILDX,Inlet,1
 Non-Parent Node Connection,OFFICE_PRIVATE_92_Z292_COOLC-HEATCNODE,COIL:COOLING:DX:SINGLESPEED,OFFICE_PRIVATE_92_Z292_COOLINGCOILDX,Outlet,1
 Non-Parent Node Connection,MECHANICAL_93_Z293_SUPPLYINLET,COIL:COOLING:DX:SINGLESPEED,MECHANICAL_93_Z293_COOLINGCOILDX,Inlet,1
 Non-Parent Node Connection,MECHANICAL_93_Z293_COOLC-HEATCNODE,COIL:COOLING:DX:SINGLESPEED,MECHANICAL_93_Z293_COOLINGCOILDX,Outlet,1
 Non-Parent Node Connection,OFFICE_PRIVATE_93_Z294_SUPPLYINLET,COIL:COOLING:DX:SINGLESPEED,OFFICE_PRIVATE_93_Z294_COOLINGCOILDX,Inlet,1
 Non-Parent Node Connection,OFFICE_PRIVATE_93_Z294_COOLC-HEATCNODE,COIL:COOLING:DX:SINGLESPEED,OFFICE_PRIVATE_93_Z294_COOLINGCOILDX,Outlet,1
 Non-Parent Node Connection,LOBBY_94_Z295_SUPPLYINLET,COIL:COOLING:DX:SINGLESPEED,LOBBY_94_Z295_COOLINGCOILDX,Inlet,1
 Non-Parent Node Connection,LOBBY_94_Z295_COOLC-HEATCNODE,COIL:COOLING:DX:SINGLESPEED,LOBBY_94_Z295_COOLINGCOILDX,Outlet,1
 Non-Parent Node Connection,BREAK_ROOM_94_Z296_SUPPLYINLET,COIL:COOLING:DX:SINGLESPEED,BREAK_ROOM_94_Z296_COOLINGCOILDX,Inlet,1
 Non-Parent Node Connection,BREAK_ROOM_94_Z296_COOLC-HEATCNODE,COIL:COOLING:DX:SINGLESPEED,BREAK_ROOM_94_Z296_COOLINGCOILDX,Outlet,1
 Non-Parent Node Connection,OFFICE_OPEN_94_Z297_SUPPLYINLET,COIL:COOLING:DX:SINGLESPEED,OFFICE_OPEN_94_Z297_COOLINGCOILDX,Inlet,1
 Non-Parent Node Connection,OFFICE_OPEN_94_Z297_COOLC-HEATCNODE,COIL:COOLING:DX:SINGLESPEED,OFFICE_OPEN_94_Z297_COOLINGCOILDX,Outlet,1
 Non-Parent Node Connection,OFFICE_PRIVATE_94_Z298_SUPPLYINLET,COIL:COOLING:DX:SINGLESPEED,OFFICE_PRIVATE_94_Z298_COOLINGCOILDX,Inlet,1
 Non-Parent Node Connection,OFFICE_PRIVATE_94_Z298_COOLC-HEATCNODE,COIL:COOLING:DX:SINGLESPEED,OFFICE_PRIVATE_94_Z298_COOLINGCOILDX,Outlet,1
 Non-Parent Node Connection,LOBBY_95_Z299_SUPPLYINLET,COIL:COOLING:DX:SINGLESPEED,LOBBY_95_Z299_COOLINGCOILDX,Inlet,1
 Non-Parent Node Connection,LOBBY_95_Z299_COOLC-HEATCNODE,COIL:COOLING:DX:SINGLESPEED,LOBBY_95_Z299_COOLINGCOILDX,Outlet,1
 Non-Parent Node Connection,CONFERENCE_95_Z300_SUPPLYINLET,COIL:COOLING:DX:SINGLESPEED,CONFERENCE_95_Z300_COOLINGCOILDX,Inlet,1
 Non-Parent Node Connection,CONFERENCE_95_Z300_COOLC-HEATCNODE,COIL:COOLING:DX:SINGLESPEED,CONFERENCE_95_Z300_COOLINGCOILDX,Outlet,1
 Non-Parent Node Connection,BREAK_ROOM_95_Z301_SUPPLYINLET,COIL:COOLING:DX:SINGLESPEED,BREAK_ROOM_95_Z301_COOLINGCOILDX,Inlet,1
 Non-Parent Node Connection,BREAK_ROOM_95_Z301_COOLC-HEATCNODE,COIL:COOLING:DX:SINGLESPEED,BREAK_ROOM_95_Z301_COOLINGCOILDX,Outlet,1
 Non-Parent Node Connection,MECHANICAL_95_Z302_SUPPLYINLET,COIL:COOLING:DX:SINGLESPEED,MECHANICAL_95_Z302_COOLINGCOILDX,Inlet,1
 Non-Parent Node Connection,MECHANICAL_95_Z302_COOLC-HEATCNODE,COIL:COOLING:DX:SINGLESPEED,MECHANICAL_95_Z302_COOLINGCOILDX,Outlet,1
 Non-Parent Node Connection,OFFICE_OPEN_95_Z303_SUPPLYINLET,COIL:COOLING:DX:SINGLESPEED,OFFICE_OPEN_95_Z303_COOLINGCOILDX,Inlet,1
 Non-Parent Node Connection,OFFICE_OPEN_95_Z303_COOLC-HEATCNODE,CO