Program Version,EnergyPlus, Version 24.2.0-94a887817b, YMD=2025.11.02 21:58
! This file shows details about the branches, nodes, and other
! elements of the flow connections.
! This file is intended for use in "debugging" potential problems
! that may also be detected by the program, but may be more easily
! identified by "eye".
! This file is also intended to support software which draws a
! schematic diagram of the HVAC system.
! ===============================================================
! #Nodes,<Number of Unique Nodes>
 #Nodes,462
! <Node>,<NodeNumber>,<Node Name>,<Node Fluid Type>,<# Times Node Referenced After Definition>
 Node,1,CONFERENCE_0_Z1_ADUOUTLET,Air,4
 Node,2,MECHANICAL_0_Z2_ADUOUTLET,Air,4
 Node,3,OFFICE_OPEN_0_Z3_ADUOUTLET,Air,4
 Node,4,STORAGE_0_Z4_ADUOUTLET,Air,4
 Node,5,LOBBY_1_Z5_ADUOUTLET,Air,4
 Node,6,CONFERENCE_1_Z6_ADUOUTLET,Air,4
 Node,7,BREAK_ROOM_1_Z7_ADUOUTLET,Air,4
 Node,8,OFFICE_PRIVATE_1_Z8_ADUOUTLET,Air,4
 Node,9,CONFERENCE_2_Z9_ADUOUTLET,Air,4
 Node,10,BREAK_ROOM_2_Z10_ADUOUTLET,Air,4
 Node,11,MECHANICAL_2_Z11_ADUOUTLET,Air,4
 Node,12,OFFICE_OPEN_2_Z12_ADUOUTLET,Air,4
 Node,13,CONFERENCE_3_Z13_ADUOUTLET,Air,4
 Node,14,MECHANICAL_3_Z14_ADUOUTLET,Air,4
 Node,15,OFFICE_OPEN_3_Z15_ADUOUTLET,Air,4
 Node,16,STORAGE_3_Z16_ADUOUTLET,Air,4
 Node,17,LOBBY_4_Z17_ADUOUTLET,Air,4
 Node,18,CONFERENCE_4_Z18_ADUOUTLET,Air,4
 Node,19,BREAK_ROOM_4_Z19_ADUOUTLET,Air,4
 Node,20,MECHANICAL_4_Z20_ADUOUTLET,Air,4
 Node,21,OFFICE_OPEN_4_Z21_ADUOUTLET,Air,4
 Node,22,CONFERENCE_5_Z22_ADUOUTLET,Air,4
 Node,23,BREAK_ROOM_5_Z23_ADUOUTLET,Air,4
 Node,24,MECHANICAL_5_Z24_ADUOUTLET,Air,4
 Node,25,OFFICE_PRIVATE_5_Z25_ADUOUTLET,Air,4
 Node,26,OFFICE_PRIVATE_6_Z26_ADUOUTLET,Air,4
 Node,27,LOBBY_7_Z27_ADUOUTLET,Air,4
 Node,28,BREAK_ROOM_7_Z28_ADUOUTLET,Air,4
 Node,29,MECHANICAL_7_Z29_ADUOUTLET,Air,4
 Node,30,OFFICE_OPEN_7_Z30_ADUOUTLET,Air,4
 Node,31,OFFICE_PRIVATE_7_Z31_ADUOUTLET,Air,4
 Node,32,STORAGE_7_Z32_ADUOUTLET,Air,4
 Node,33,CONFERENCE_8_Z33_ADUOUTLET,Air,4
 Node,34,BREAK_ROOM_8_Z34_ADUOUTLET,Air,4
 Node,35,MECHANICAL_8_Z35_ADUOUTLET,Air,4
 Node,36,OFFICE_OPEN_8_Z36_ADUOUTLET,Air,4
 Node,37,STORAGE_8_Z37_ADUOUTLET,Air,4
 Node,38,CONFERENCE_9_Z38_ADUOUTLET,Air,4
 Node,39,BREAK_ROOM_9_Z39_ADUOUTLET,Air,4
 Node,40,MECHANICAL_9_Z40_ADUOUTLET,Air,4
 Node,41,OFFICE_OPEN_9_Z41_ADUOUTLET,Air,4
 Node,42,OFFICE_PRIVATE_9_Z42_ADUOUTLET,Air,4
 Node,43,CONFERENCE_0_Z1_SUPPLYINLET,Air,3
 Node,44,CONFERENCE_0_Z1_COOLC-HEATCNODE,Air,6
 Node,45,CONFERENCE_0_Z1_HEATC-FANNODE,Air,5
 Node,46,CONFERENCE_0_Z1_SUPPLYEQUIPMENTOUTLETNODE,Air,3
 Node,47,MECHANICAL_0_Z2_SUPPLYINLET,Air,3
 Node,48,MECHANICAL_0_Z2_COOLC-HEATCNODE,Air,6
 Node,49,MECHANICAL_0_Z2_HEATC-FANNODE,Air,5
 Node,50,MECHANICAL_0_Z2_SUPPLYEQUIPMENTOUTLETNODE,Air,3
 Node,51,OFFICE_OPEN_0_Z3_SUPPLYINLET,Air,3
 Node,52,OFFICE_OPEN_0_Z3_COOLC-HEATCNODE,Air,6
 Node,53,OFFICE_OPEN_0_Z3_HEATC-FANNODE,Air,5
 Node,54,OFFICE_OPEN_0_Z3_SUPPLYEQUIPMENTOUTLETNODE,Air,3
 Node,55,STORAGE_0_Z4_SUPPLYINLET,Air,3
 Node,56,STORAGE_0_Z4_COOLC-HEATCNODE,Air,6
 Node,57,STORAGE_0_Z4_HEATC-FANNODE,Air,5
 Node,58,STORAGE_0_Z4_SUPPLYEQUIPMENTOUTLETNODE,Air,3
 Node,59,LOBBY_1_Z5_SUPPLYINLET,Air,3
 Node,60,LOBBY_1_Z5_COOLC-HEATCNODE,Air,6
 Node,61,LOBBY_1_Z5_HEATC-FANNODE,Air,5
 Node,62,LOBBY_1_Z5_SUPPLYEQUIPMENTOUTLETNODE,Air,3
 Node,63,CONFERENCE_1_Z6_SUPPLYINLET,Air,3
 Node,64,CONFERENCE_1_Z6_COOLC-HEATCNODE,Air,6
 Node,65,CONFERENCE_1_Z6_HEATC-FANNODE,Air,5
 Node,66,CONFERENCE_1_Z6_SUPPLYEQUIPMENTOUTLETNODE,Air,3
 Node,67,BREAK_ROOM_1_Z7_SUPPLYINLET,Air,3
 Node,68,BREAK_ROOM_1_Z7_COOLC-HEATCNODE,Air,6
 Node,69,BREAK_ROOM_1_Z7_HEATC-FANNODE,Air,5
 Node,70,BREAK_ROOM_1_Z7_SUPPLYEQUIPMENTOUTLETNODE,Air,3
 Node,71,OFFICE_PRIVATE_1_Z8_SUPPLYINLET,Air,3
 Node,72,OFFICE_PRIVATE_1_Z8_COOLC-HEATCNODE,Air,6
 Node,73,OFFICE_PRIVATE_1_Z8_HEATC-FANNODE,Air,5
 Node,74,OFFICE_PRIVATE_1_Z8_SUPPLYEQUIPMENTOUTLETNODE,Air,3
 Node,75,CONFERENCE_2_Z9_SUPPLYINLET,Air,3
 Node,76,CONFERENCE_2_Z9_COOLC-HEATCNODE,Air,6
 Node,77,CONFERENCE_2_Z9_HEATC-FANNODE,Air,5
 Node,78,CONFERENCE_2_Z9_SUPPLYEQUIPMENTOUTLETNODE,Air,3
 Node,79,BREAK_ROOM_2_Z10_SUPPLYINLET,Air,3
 Node,80,BREAK_ROOM_2_Z10_COOLC-HEATCNODE,Air,6
 Node,81,BREAK_ROOM_2_Z10_HEATC-FANNODE,Air,5
 Node,82,BREAK_ROOM_2_Z10_SUPPLYEQUIPMENTOUTLETNODE,Air,3
 Node,83,MECHANICAL_2_Z11_SUPPLYINLET,Air,3
 Node,84,MECHANICAL_2_Z11_COOLC-HEATCNODE,Air,6
 Node,85,MECHANICAL_2_Z11_HEATC-FANNODE,Air,5
 Node,86,MECHANICAL_2_Z11_SUPPLYEQUIPMENTOUTLETNODE,Air,3
 Node,87,OFFICE_OPEN_2_Z12_SUPPLYINLET,Air,3
 Node,88,OFFICE_OPEN_2_Z12_COOLC-HEATCNODE,Air,6
 Node,89,OFFICE_OPEN_2_Z12_HEATC-FANNODE,Air,5
 Node,90,OFFICE_OPEN_2_Z12_SUPPLYEQUIPMENTOUTLETNODE,Air,3
 Node,91,CONFERENCE_3_Z13_SUPPLYINLET,Air,3
 Node,92,CONFERENCE_3_Z13_COOLC-HEATCNODE,Air,6
 Node,93,CONFERENCE_3_Z13_HEATC-FANNODE,Air,5
 Node,94,CONFERENCE_3_Z13_SUPPLYEQUIPMENTOUTLETNODE,Air,3
 Node,95,MECHANICAL_3_Z14_SUPPLYINLET,Air,3
 Node,96,MECHANICAL_3_Z14_COOLC-HEATCNODE,Air,6
 Node,97,MECHANICAL_3_Z14_HEATC-FANNODE,Air,5
 Node,98,MECHANICAL_3_Z14_SUPPLYEQUIPMENTOUTLETNODE,Air,3
 Node,99,OFFICE_OPEN_3_Z15_SUPPLYINLET,Air,3
 Node,100,OFFICE_OPEN_3_Z15_COOLC-HEATCNODE,Air,6
 Node,101,OFFICE_OPEN_3_Z15_HEATC-FANNODE,Air,5
 Node,102,OFFICE_OPEN_3_Z15_SUPPLYEQUIPMENTOUTLETNODE,Air,3
 Node,103,STORAGE_3_Z16_SUPPLYINLET,Air,3
 Node,104,STORAGE_3_Z16_COOLC-HEATCNODE,Air,6
 Node,105,STORAGE_3_Z16_HEATC-FANNODE,Air,5
 Node,106,STORAGE_3_Z16_SUPPLYEQUIPMENTOUTLETNODE,Air,3
 Node,107,LOBBY_4_Z17_SUPPLYINLET,Air,3
 Node,108,LOBBY_4_Z17_COOLC-HEATCNODE,Air,6
 Node,109,LOBBY_4_Z17_HEATC-FANNODE,Air,5
 Node,110,LOBBY_4_Z17_SUPPLYEQUIPMENTOUTLETNODE,Air,3
 Node,111,CONFERENCE_4_Z18_SUPPLYINLET,Air,3
 Node,112,CONFERENCE_4_Z18_COOLC-HEATCNODE,Air,6
 Node,113,CONFERENCE_4_Z18_HEATC-FANNODE,Air,5
 Node,114,CONFERENCE_4_Z18_SUPPLYEQUIPMENTOUTLETNODE,Air,3
 Node,115,BREAK_ROOM_4_Z19_SUPPLYINLET,Air,3
 Node,116,BREAK_ROOM_4_Z19_COOLC-HEATCNODE,Air,6
 Node,117,BREAK_ROOM_4_Z19_HEATC-FANNODE,Air,5
 Node,118,BREAK_ROOM_4_Z19_SUPPLYEQUIPMENTOUTLETNODE,Air,3
 Node,119,MECHANICAL_4_Z20_SUPPLYINLET,Air,3
 Node,120,MECHANICAL_4_Z20_COOLC-HEATCNODE,Air,6
 Node,121,MECHANICAL_4_Z20_HEATC-FANNODE,Air,5
 Node,122,MECHANICAL_4_Z20_SUPPLYEQUIPMENTOUTLETNODE,Air,3
 Node,123,OFFICE_OPEN_4_Z21_SUPPLYINLET,Air,3
 Node,124,OFFICE_OPEN_4_Z21_COOLC-HEATCNODE,Air,6
 Node,125,OFFICE_OPEN_4_Z21_HEATC-FANNODE,Air,5
 Node,126,OFFICE_OPEN_4_Z21_SUPPLYEQUIPMENTOUTLETNODE,Air,3
 Node,127,CONFERENCE_5_Z22_SUPPLYINLET,Air,3
 Node,128,CONFERENCE_5_Z22_COOLC-HEATCNODE,Air,6
 Node,129,CONFERENCE_5_Z22_HEATC-FANNODE,Air,5
 Node,130,CONFERENCE_5_Z22_SUPPLYEQUIPMENTOUTLETNODE,Air,3
 Node,131,BREAK_ROOM_5_Z23_SUPPLYINLET,Air,3
 Node,132,BREAK_ROOM_5_Z23_COOLC-HEATCNODE,Air,6
 Node,133,BREAK_ROOM_5_Z23_HEATC-FANNODE,Air,5
 Node,134,BREAK_ROOM_5_Z23_SUPPLYEQUIPMENTOUTLETNODE,Air,3
 Node,135,MECHANICAL_5_Z24_SUPPLYINLET,Air,3
 Node,136,MECHANICAL_5_Z24_COOLC-HEATCNODE,Air,6
 Node,137,MECHANICAL_5_Z24_HEATC-FANNODE,Air,5
 Node,138,MECHANICAL_5_Z24_SUPPLYEQUIPMENTOUTLETNODE,Air,3
 Node,139,OFFICE_PRIVATE_5_Z25_SUPPLYINLET,Air,3
 Node,140,OFFICE_PRIVATE_5_Z25_COOLC-HEATCNODE,Air,6
 Node,141,OFFICE_PRIVATE_5_Z25_HEATC-FANNODE,Air,5
 Node,142,OFFICE_PRIVATE_5_Z25_SUPPLYEQUIPMENTOUTLETNODE,Air,3
 Node,143,OFFICE_PRIVATE_6_Z26_SUPPLYINLET,Air,3
 Node,144,OFFICE_PRIVATE_6_Z26_COOLC-HEATCNODE,Air,6
 Node,145,OFFICE_PRIVATE_6_Z26_HEATC-FANNODE,Air,5
 Node,146,OFFICE_PRIVATE_6_Z26_SUPPLYEQUIPMENTOUTLETNODE,Air,3
 Node,147,LOBBY_7_Z27_SUPPLYINLET,Air,3
 Node,148,LOBBY_7_Z27_COOLC-HEATCNODE,Air,6
 Node,149,LOBBY_7_Z27_HEATC-FANNODE,Air,5
 Node,150,LOBBY_7_Z27_SUPPLYEQUIPMENTOUTLETNODE,Air,3
 Node,151,BREAK_ROOM_7_Z28_SUPPLYINLET,Air,3
 Node,152,BREAK_ROOM_7_Z28_COOLC-HEATCNODE,Air,6
 Node,153,BREAK_ROOM_7_Z28_HEATC-FANNODE,Air,5
 Node,154,BREAK_ROOM_7_Z28_SUPPLYEQUIPMENTOUTLETNODE,Air,3
 Node,155,MECHANICAL_7_Z29_SUPPLYINLET,Air,3
 Node,156,MECHANICAL_7_Z29_COOLC-HEATCNODE,Air,6
 Node,157,MECHANICAL_7_Z29_HEATC-FANNODE,Air,5
 Node,158,MECHANICAL_7_Z29_SUPPLYEQUIPMENTOUTLETNODE,Air,3
 Node,159,OFFICE_OPEN_7_Z30_SUPPLYINLET,Air,3
 Node,160,OFFICE_OPEN_7_Z30_COOLC-HEATCNODE,Air,6
 Node,161,OFFICE_OPEN_7_Z30_HEATC-FANNODE,Air,5
 Node,162,OFFICE_OPEN_7_Z30_SUPPLYEQUIPMENTOUTLETNODE,Air,3
 Node,163,OFFICE_PRIVATE_7_Z31_SUPPLYINLET,Air,3
 Node,164,OFFICE_PRIVATE_7_Z31_COOLC-HEATCNODE,Air,6
 Node,165,OFFICE_PRIVATE_7_Z31_HEATC-FANNODE,Air,5
 Node,166,OFFICE_PRIVATE_7_Z31_SUPPLYEQUIPMENTOUTLETNODE,Air,3
 Node,167,STORAGE_7_Z32_SUPPLYINLET,Air,3
 Node,168,STORAGE_7_Z32_COOLC-HEATCNODE,Air,6
 Node,169,STORAGE_7_Z32_HEATC-FANNODE,Air,5
 Node,170,STORAGE_7_Z32_SUPPLYEQUIPMENTOUTLETNODE,Air,3
 Node,171,CONFERENCE_8_Z33_SUPPLYINLET,Air,3
 Node,172,CONFERENCE_8_Z33_COOLC-HEATCNODE,Air,6
 Node,173,CONFERENCE_8_Z33_HEATC-FANNODE,Air,5
 Node,174,CONFERENCE_8_Z33_SUPPLYEQUIPMENTOUTLETNODE,Air,3
 Node,175,BREAK_ROOM_8_Z34_SUPPLYINLET,Air,3
 Node,176,BREAK_ROOM_8_Z34_COOLC-HEATCNODE,Air,6
 Node,177,BREAK_ROOM_8_Z34_HEATC-FANNODE,Air,5
 Node,178,BREAK_ROOM_8_Z34_SUPPLYEQUIPMENTOUTLETNODE,Air,3
 Node,179,MECHANICAL_8_Z35_SUPPLYINLET,Air,3
 Node,180,MECHANICAL_8_Z35_COOLC-HEATCNODE,Air,6
 Node,181,MECHANICAL_8_Z35_HEATC-FANNODE,Air,5
 Node,182,MECHANICAL_8_Z35_SUPPLYEQUIPMENTOUTLETNODE,Air,3
 Node,183,OFFICE_OPEN_8_Z36_SUPPLYINLET,Air,3
 Node,184,OFFICE_OPEN_8_Z36_COOLC-HEATCNODE,Air,6
 Node,185,OFFICE_OPEN_8_Z36_HEATC-FANNODE,Air,5
 Node,186,OFFICE_OPEN_8_Z36_SUPPLYEQUIPMENTOUTLETNODE,Air,3
 Node,187,STORAGE_8_Z37_SUPPLYINLET,Air,3
 Node,188,STORAGE_8_Z37_COOLC-HEATCNODE,Air,6
 Node,189,STORAGE_8_Z37_HEATC-FANNODE,Air,5
 Node,190,STORAGE_8_Z37_SUPPLYEQUIPMENTOUTLETNODE,Air,3
 Node,191,CONFERENCE_9_Z38_SUPPLYINLET,Air,3
 Node,192,CONFERENCE_9_Z38_COOLC-HEATCNODE,Air,6
 Node,193,CONFERENCE_9_Z38_HEATC-FANNODE,Air,5
 Node,194,CONFERENCE_9_Z38_SUPPLYEQUIPMENTOUTLETNODE,Air,3
 Node,195,BREAK_ROOM_9_Z39_SUPPLYINLET,Air,3
 Node,196,BREAK_ROOM_9_Z39_COOLC-HEATCNODE,Air,6
 Node,197,BREAK_ROOM_9_Z39_HEATC-FANNODE,Air,5
 Node,198,BREAK_ROOM_9_Z39_SUPPLYEQUIPMENTOUTLETNODE,Air,3
 Node,199,MECHANICAL_9_Z40_SUPPLYINLET,Air,3
 Node,200,MECHANICAL_9_Z40_COOLC-HEATCNODE,Air,6
 Node,201,MECHANICAL_9_Z40_HEATC-FANNODE,Air,5
 Node,202,MECHANICAL_9_Z40_SUPPLYEQUIPMENTOUTLETNODE,Air,3
 Node,203,OFFICE_OPEN_9_Z41_SUPPLYINLET,Air,3
 Node,204,OFFICE_OPEN_9_Z41_COOLC-HEATCNODE,Air,6
 Node,205,OFFICE_OPEN_9_Z41_HEATC-FANNODE,Air,5
 Node,206,OFFICE_OPEN_9_Z41_SUPPLYEQUIPMENTOUTLETNODE,Air,3
 Node,207,OFFICE_PRIVATE_9_Z42_SUPPLYINLET,Air,3
 Node,208,OFFICE_PRIVATE_9_Z42_COOLC-HEATCNODE,Air,6
 Node,209,OFFICE_PRIVATE_9_Z42_HEATC-FANNODE,Air,5
 Node,210,OFFICE_PRIVATE_9_Z42_SUPPLYEQUIPMENTOUTLETNODE,Air,3
 Node,211,CONFERENCE_0 AIR NODE,Air,0
 Node,212,CONFERENCE_0_Z1_RETURNAIR,Air,1
 Node,213,MECHANICAL_0 AIR NODE,Air,0
 Node,214,MECHANICAL_0_Z2_RETURNAIR,Air,1
 Node,215,OFFICE_OPEN_0 AIR NODE,Air,0
 Node,216,OFFICE_OPEN_0_Z3_RETURNAIR,Air,1
 Node,217,STORAGE_0 AIR NODE,Air,0
 Node,218,STORAGE_0_Z4_RETURNAIR,Air,1
 Node,219,LOBBY_1 AIR NODE,Air,0
 Node,220,LOBBY_1_Z5_RETURNAIR,Air,1
 Node,221,CONFERENCE_1 AIR NODE,Air,0
 Node,222,CONFERENCE_1_Z6_RETURNAIR,Air,1
 Node,223,BREAK_ROOM_1 AIR NODE,Air,0
 Node,224,BREAK_ROOM_1_Z7_RETURNAIR,Air,1
 Node,225,OFFICE_PRIVATE_1 AIR NODE,Air,0
 Node,226,OFFICE_PRIVATE_1_Z8_RETURNAIR,Air,1
 Node,227,CONFERENCE_2 AIR NODE,Air,0
 Node,228,CONFERENCE_2_Z9_RETURNAIR,Air,1
 Node,229,BREAK_ROOM_2 AIR NODE,Air,0
 Node,230,BREAK_ROOM_2_Z10_RETURNAIR,Air,1
 Node,231,MECHANICAL_2 AIR NODE,Air,0
 Node,232,MECHANICAL_2_Z11_RETURNAIR,Air,1
 Node,233,OFFICE_OPEN_2 AIR NODE,Air,0
 Node,234,OFFICE_OPEN_2_Z12_RETURNAIR,Air,1
 Node,235,CONFERENCE_3 AIR NODE,Air,0
 Node,236,CONFERENCE_3_Z13_RETURNAIR,Air,1
 Node,237,MECHANICAL_3 AIR NODE,Air,0
 Node,238,MECHANICAL_3_Z14_RETURNAIR,Air,1
 Node,239,OFFICE_OPEN_3 AIR NODE,Air,0
 Node,240,OFFICE_OPEN_3_Z15_RETURNAIR,Air,1
 Node,241,STORAGE_3 AIR NODE,Air,0
 Node,242,STORAGE_3_Z16_RETURNAIR,Air,1
 Node,243,LOBBY_4 AIR NODE,Air,0
 Node,244,LOBBY_4_Z17_RETURNAIR,Air,1
 Node,245,CONFERENCE_4 AIR NODE,Air,0
 Node,246,CONFERENCE_4_Z18_RETURNAIR,Air,1
 Node,247,BREAK_ROOM_4 AIR NODE,Air,0
 Node,248,BREAK_ROOM_4_Z19_RETURNAIR,Air,1
 Node,249,MECHANICAL_4 AIR NODE,Air,0
 Node,250,MECHANICAL_4_Z20_RETURNAIR,Air,1
 Node,251,OFFICE_OPEN_4 AIR NODE,Air,0
 Node,252,OFFICE_OPEN_4_Z21_RETURNAIR,Air,1
 Node,253,CONFERENCE_5 AIR NODE,Air,0
 Node,254,CONFERENCE_5_Z22_RETURNAIR,Air,1
 Node,255,BREAK_ROOM_5 AIR NODE,Air,0
 Node,256,BREAK_ROOM_5_Z23_RETURNAIR,Air,1
 Node,257,MECHANICAL_5 AIR NODE,Air,0
 Node,258,MECHANICAL_5_Z24_RETURNAIR,Air,1
 Node,259,OFFICE_PRIVATE_5 AIR NODE,Air,0
 Node,260,OFFICE_PRIVATE_5_Z25_RETURNAIR,Air,1
 Node,261,OFFICE_PRIVATE_6 AIR NODE,Air,0
 Node,262,OFFICE_PRIVATE_6_Z26_RETURNAIR,Air,1
 Node,263,LOBBY_7 AIR NODE,Air,0
 Node,264,LOBBY_7_Z27_RETURNAIR,Air,1
 Node,265,BREAK_ROOM_7 AIR NODE,Air,0
 Node,266,BREAK_ROOM_7_Z28_RETURNAIR,Air,1
 Node,267,MECHANICAL_7 AIR NODE,Air,0
 Node,268,MECHANICAL_7_Z29_RETURNAIR,Air,1
 Node,269,OFFICE_OPEN_7 AIR NODE,Air,0
 Node,270,OFFICE_OPEN_7_Z30_RETURNAIR,Air,1
 Node,271,OFFICE_PRIVATE_7 AIR NODE,Air,0
 Node,272,OFFICE_PRIVATE_7_Z31_RETURNAIR,Air,1
 Node,273,STORAGE_7 AIR NODE,Air,0
 Node,274,STORAGE_7_Z32_RETURNAIR,Air,1
 Node,275,CONFERENCE_8 AIR NODE,Air,0
 Node,276,CONFERENCE_8_Z33_RETURNAIR,Air,1
 Node,277,BREAK_ROOM_8 AIR NODE,Air,0
 Node,278,BREAK_ROOM_8_Z34_RETURNAIR,Air,1
 Node,279,MECHANICAL_8 AIR NODE,Air,0
 Node,280,MECHANICAL_8_Z35_RETURNAIR,Air,1
 Node,281,OFFICE_OPEN_8 AIR NODE,Air,0
 Node,282,OFFICE_OPEN_8_Z36_RETURNAIR,Air,1
 Node,283,STORAGE_8 AIR NODE,Air,0
 Node,284,STORAGE_8_Z37_RETURNAIR,Air,1
 Node,285,CONFERENCE_9 AIR NODE,Air,0
 Node,286,CONFERENCE_9_Z38_RETURNAIR,Air,1
 Node,287,BREAK_ROOM_9 AIR NODE,Air,0
 Node,288,BREAK_ROOM_9_Z39_RETURNAIR,Air,1
 Node,289,MECHANICAL_9 AIR NODE,Air,0
 Node,290,MECHANICAL_9_Z40_RETURNAIR,Air,1
 Node,291,OFFICE_OPEN_9 AIR NODE,Air,0
 Node,292,OFFICE_OPEN_9_Z41_RETURNAIR,Air,1
 Node,293,OFFICE_PRIVATE_9 AIR NODE,Air,0
 Node,294,OFFICE_PRIVATE_9_Z42_RETURNAIR,Air,1
 Node,295,CONFERENCE_0_Z1_ZONEEQUIPMENTINLET,Air,2
 Node,296,MECHANICAL_0_Z2_ZONEEQUIPMENTINLET,Air,2
 Node,297,OFFICE_OPEN_0_Z3_ZONEEQUIPMENTINLET,Air,2
 Node,298,STORAGE_0_Z4_ZONEEQUIPMENTINLET,Air,2
 Node,299,LOBBY_1_Z5_ZONEEQUIPMENTINLET,Air,2
 Node,300,CONFERENCE_1_Z6_ZONEEQUIPMENTINLET,Air,2
 Node,301,BREAK_ROOM_1_Z7_ZONEEQUIPMENTINLET,Air,2
 Node,302,OFFICE_PRIVATE_1_Z8_ZONEEQUIPMENTINLET,Air,2
 Node,303,CONFERENCE_2_Z9_ZONEEQUIPMENTINLET,Air,2
 Node,304,BREAK_ROOM_2_Z10_ZONEEQUIPMENTINLET,Air,2
 Node,305,MECHANICAL_2_Z11_ZONEEQUIPMENTINLET,Air,2
 Node,306,OFFICE_OPEN_2_Z12_ZONEEQUIPMENTINLET,Air,2
 Node,307,CONFERENCE_3_Z13_ZONEEQUIPMENTINLET,Air,2
 Node,308,MECHANICAL_3_Z14_ZONEEQUIPMENTINLET,Air,2
 Node,309,OFFICE_OPEN_3_Z15_ZONEEQUIPMENTINLET,Air,2
 Node,310,STORAGE_3_Z16_ZONEEQUIPMENTINLET,Air,2
 Node,311,LOBBY_4_Z17_ZONEEQUIPMENTINLET,Air,2
 Node,312,CONFERENCE_4_Z18_ZONEEQUIPMENTINLET,Air,2
 Node,313,BREAK_ROOM_4_Z19_ZONEEQUIPMENTINLET,Air,2
 Node,314,MECHANICAL_4_Z20_ZONEEQUIPMENTINLET,Air,2
 Node,315,OFFICE_OPEN_4_Z21_ZONEEQUIPMENTINLET,Air,2
 Node,316,CONFERENCE_5_Z22_ZONEEQUIPMENTINLET,Air,2
 Node,317,BREAK_ROOM_5_Z23_ZONEEQUIPMENTINLET,Air,2
 Node,318,MECHANICAL_5_Z24_ZONEEQUIPMENTINLET,Air,2
 Node,319,OFFICE_PRIVATE_5_Z25_ZONEEQUIPMENTINLET,Air,2
 Node,320,OFFICE_PRIVATE_6_Z26_ZONEEQUIPMENTINLET,Air,2
 Node,321,LOBBY_7_Z27_ZONEEQUIPMENTINLET,Air,2
 Node,322,BREAK_ROOM_7_Z28_ZONEEQUIPMENTINLET,Air,2
 Node,323,MECHANICAL_7_Z29_ZONEEQUIPMENTINLET,Air,2
 Node,324,OFFICE_OPEN_7_Z30_ZONEEQUIPMENTINLET,Air,2
 Node,325,OFFICE_PRIVATE_7_Z31_ZONEEQUIPMENTINLET,Air,2
 Node,326,STORAGE_7_Z32_ZONEEQUIPMENTINLET,Air,2
 Node,327,CONFERENCE_8_Z33_ZONEEQUIPMENTINLET,Air,2
 Node,328,BREAK_ROOM_8_Z34_ZONEEQUIPMENTINLET,Air,2
 Node,329,MECHANICAL_8_Z35_ZONEEQUIPMENTINLET,Air,2
 Node,330,OFFICE_OPEN_8_Z36_ZONEEQUIPMENTINLET,Air,2
 Node,331,STORAGE_8_Z37_ZONEEQUIPMENTINLET,Air,2
 Node,332,CONFERENCE_9_Z38_ZONEEQUIPMENTINLET,Air,2
 Node,333,BREAK_ROOM_9_Z39_ZONEEQUIPMENTINLET,Air,2
 Node,334,MECHANICAL_9_Z40_ZONEEQUIPMENTINLET,Air,2
 Node,335,OFFICE_OPEN_9_Z41_ZONEEQUIPMENTINLET,Air,2
 Node,336,OFFICE_PRIVATE_9_Z42_ZONEEQUIPMENTINLET,Air,2
 Node,337,CONFERENCE_0_Z1_ZONEEQUIPMENTOUTLETNODE,Air,2
 Node,338,MECHANICAL_0_Z2_ZONEEQUIPMENTOUTLETNODE,Air,2
 Node,339,OFFICE_OPEN_0_Z3_ZONEEQUIPMENTOUTLETNODE,Air,2
 Node,340,STORAGE_0_Z4_ZONEEQUIPMENTOUTLETNODE,Air,2
 Node,341,LOBBY_1_Z5_ZONEEQUIPMENTOUTLETNODE,Air,2
 Node,342,CONFERENCE_1_Z6_ZONEEQUIPMENTOUTLETNODE,Air,2
 Node,343,BREAK_ROOM_1_Z7_ZONEEQUIPMENTOUTLETNODE,Air,2
 Node,344,OFFICE_PRIVATE_1_Z8_ZONEEQUIPMENTOUTLETNODE,Air,2
 Node,345,CONFERENCE_2_Z9_ZONEEQUIPMENTOUTLETNODE,Air,2
 Node,346,BREAK_ROOM_2_Z10_ZONEEQUIPMENTOUTLETNODE,Air,2
 Node,347,MECHANICAL_2_Z11_ZONEEQUIPMENTOUTLETNODE,Air,2
 Node,348,OFFICE_OPEN_2_Z12_ZONEEQUIPMENTOUTLETNODE,Air,2
 Node,349,CONFERENCE_3_Z13_ZONEEQUIPMENTOUTLETNODE,Air,2
 Node,350,MECHANICAL_3_Z14_ZONEEQUIPMENTOUTLETNODE,Air,2
 Node,351,OFFICE_OPEN_3_Z15_ZONEEQUIPMENTOUTLETNODE,Air,2
 Node,352,STORAGE_3_Z16_ZONEEQUIPMENTOUTLETNODE,Air,2
 Node,353,LOBBY_4_Z17_ZONEEQUIPMENTOUTLETNODE,Air,2
 Node,354,CONFERENCE_4_Z18_ZONEEQUIPMENTOUTLETNODE,Air,2
 Node,355,BREAK_ROOM_4_Z19_ZONEEQUIPMENTOUTLETNODE,Air,2
 Node,356,MECHANICAL_4_Z20_ZONEEQUIPMENTOUTLETNODE,Air,2
 Node,357,OFFICE_OPEN_4_Z21_ZONEEQUIPMENTOUTLETNODE,Air,2
 Node,358,CONFERENCE_5_Z22_ZONEEQUIPMENTOUTLETNODE,Air,2
 Node,359,BREAK_ROOM_5_Z23_ZONEEQUIPMENTOUTLETNODE,Air,2
 Node,360,MECHANICAL_5_Z24_ZONEEQUIPMENTOUTLETNODE,Air,2
 Node,361,OFFICE_PRIVATE_5_Z25_ZONEEQUIPMENTOUTLETNODE,Air,2
 Node,362,OFFICE_PRIVATE_6_Z26_ZONEEQUIPMENTOUTLETNODE,Air,2
 Node,363,LOBBY_7_Z27_ZONEEQUIPMENTOUTLETNODE,Air,2
 Node,364,BREAK_ROOM_7_Z28_ZONEEQUIPMENTOUTLETNODE,Air,2
 Node,365,MECHANICAL_7_Z29_ZONEEQUIPMENTOUTLETNODE,Air,2
 Node,366,OFFICE_OPEN_7_Z30_ZONEEQUIPMENTOUTLETNODE,Air,2
 Node,367,OFFICE_PRIVATE_7_Z31_ZONEEQUIPMENTOUTLETNODE,Air,2
 Node,368,STORAGE_7_Z32_ZONEEQUIPMENTOUTLETNODE,Air,2
 Node,369,CONFERENCE_8_Z33_ZONEEQUIPMENTOUTLETNODE,Air,2
 Node,370,BREAK_ROOM_8_Z34_ZONEEQUIPMENTOUTLETNODE,Air,2
 Node,371,MECHANICAL_8_Z35_ZONEEQUIPMENTOUTLETNODE,Air,2
 Node,372,OFFICE_OPEN_8_Z36_ZONEEQUIPMENTOUTLETNODE,Air,2
 Node,373,STORAGE_8_Z37_ZONEEQUIPMENTOUTLETNODE,Air,2
 Node,374,CONFERENCE_9_Z38_ZONEEQUIPMENTOUTLETNODE,Air,2
 Node,375,BREAK_ROOM_9_Z39_ZONEEQUIPMENTOUTLETNODE,Air,2
 Node,376,MECHANICAL_9_Z40_ZONEEQUIPMENTOUTLETNODE,Air,2
 Node,377,OFFICE_OPEN_9_Z41_ZONEEQUIPMENTOUTLETNODE,Air,2
 Node,378,OFFICE_PRIVATE_9_Z42_ZONEEQUIPMENTOUTLETNODE,Air,2
 Node,379,CONFERENCE_0_Z1_TERMINALINLET,Air,1
 Node,380,MECHANICAL_0_Z2_TERMINALINLET,Air,1
 Node,381,OFFICE_OPEN_0_Z3_TERMINALINLET,Air,1
 Node,382,STORAGE_0_Z4_TERMINALINLET,Air,1
 Node,383,LOBBY_1_Z5_TERMINALINLET,Air,1
 Node,384,CONFERENCE_1_Z6_TERMINALINLET,Air,1
 Node,385,BREAK_ROOM_1_Z7_TERMINALINLET,Air,1
 Node,386,OFFICE_PRIVATE_1_Z8_TERMINALINLET,Air,1
 Node,387,CONFERENCE_2_Z9_TERMINALINLET,Air,1
 Node,388,BREAK_ROOM_2_Z10_TERMINALINLET,Air,1
 Node,389,MECHANICAL_2_Z11_TERMINALINLET,Air,1
 Node,390,OFFICE_OPEN_2_Z12_TERMINALINLET,Air,1
 Node,391,CONFERENCE_3_Z13_TERMINALINLET,Air,1
 Node,392,MECHANICAL_3_Z14_TERMINALINLET,Air,1
 Node,393,OFFICE_OPEN_3_Z15_TERMINALINLET,Air,1
 Node,394,STORAGE_3_Z16_TERMINALINLET,Air,1
 Node,395,LOBBY_4_Z17_TERMINALINLET,Air,1
 Node,396,CONFERENCE_4_Z18_TERMINALINLET,Air,1
 Node,397,BREAK_ROOM_4_Z19_TERMINALINLET,Air,1
 Node,398,MECHANICAL_4_Z20_TERMINALINLET,Air,1
 Node,399,OFFICE_OPEN_4_Z21_TERMINALINLET,Air,1
 Node,400,CONFERENCE_5_Z22_TERMINALINLET,Air,1
 Node,401,BREAK_ROOM_5_Z23_TERMINALINLET,Air,1
 Node,402,MECHANICAL_5_Z24_TERMINALINLET,Air,1
 Node,403,OFFICE_PRIVATE_5_Z25_TERMINALINLET,Air,1
 Node,404,OFFICE_PRIVATE_6_Z26_TERMINALINLET,Air,1
 Node,405,LOBBY_7_Z27_TERMINALINLET,Air,1
 Node,406,BREAK_ROOM_7_Z28_TERMINALINLET,Air,1
 Node,407,MECHANICAL_7_Z29_TERMINALINLET,Air,1
 Node,408,OFFICE_OPEN_7_Z30_TERMINALINLET,Air,1
 Node,409,OFFICE_PRIVATE_7_Z31_TERMINALINLET,Air,1
 Node,410,STORAGE_7_Z32_TERMINALINLET,Air,1
 Node,411,CONFERENCE_8_Z33_TERMINALINLET,Air,1
 Node,412,BREAK_ROOM_8_Z34_TERMINALINLET,Air,1
 Node,413,MECHANICAL_8_Z35_TERMINALINLET,Air,1
 Node,414,OFFICE_OPEN_8_Z36_TERMINALINLET,Air,1
 Node,415,STORAGE_8_Z37_TERMINALINLET,Air,1
 Node,416,CONFERENCE_9_Z38_TERMINALINLET,Air,1
 Node,417,BREAK_ROOM_9_Z39_TERMINALINLET,Air,1
 Node,418,MECHANICAL_9_Z40_TERMINALINLET,Air,1
 Node,419,OFFICE_OPEN_9_Z41_TERMINALINLET,Air,1
 Node,420,OFFICE_PRIVATE_9_Z42_TERMINALINLET,Air,1
 Node,421,CONFERENCE_0_Z1_TERMINALOUTLET,Air,1
 Node,422,MECHANICAL_0_Z2_TERMINALOUTLET,Air,1
 Node,423,OFFICE_OPEN_0_Z3_TERMINALOUTLET,Air,1
 Node,424,STORAGE_0_Z4_TERMINALOUTLET,Air,1
 Node,425,LOBBY_1_Z5_TERMINALOUTLET,Air,1
 Node,426,CONFERENCE_1_Z6_TERMINALOUTLET,Air,1
 Node,427,BREAK_ROOM_1_Z7_TERMINALOUTLET,Air,1
 Node,428,OFFICE_PRIVATE_1_Z8_TERMINALOUTLET,Air,1
 Node,429,CONFERENCE_2_Z9_TERMINALOUTLET,Air,1
 Node,430,BREAK_ROOM_2_Z10_TERMINALOUTLET,Air,1
 Node,431,MECHANICAL_2_Z11_TERMINALOUTLET,Air,1
 Node,432,OFFICE_OPEN_2_Z12_TERMINALOUTLET,Air,1
 Node,433,CONFERENCE_3_Z13_TERMINALOUTLET,Air,1
 Node,434,MECHANICAL_3_Z14_TERMINALOUTLET,Air,1
 Node,435,OFFICE_OPEN_3_Z15_TERMINALOUTLET,Air,1
 Node,436,STORAGE_3_Z16_TERMINALOUTLET,Air,1
 Node,437,LOBBY_4_Z17_TERMINALOUTLET,Air,1
 Node,438,CONFERENCE_4_Z18_TERMINALOUTLET,Air,1
 Node,439,BREAK_ROOM_4_Z19_TERMINALOUTLET,Air,1
 Node,440,MECHANICAL_4_Z20_TERMINALOUTLET,Air,1
 Node,441,OFFICE_OPEN_4_Z21_TERMINALOUTLET,Air,1
 Node,442,CONFERENCE_5_Z22_TERMINALOUTLET,Air,1
 Node,443,BREAK_ROOM_5_Z23_TERMINALOUTLET,Air,1
 Node,444,MECHANICAL_5_Z24_TERMINALOUTLET,Air,1
 Node,445,OFFICE_PRIVATE_5_Z25_TERMINALOUTLET,Air,1
 Node,446,OFFICE_PRIVATE_6_Z26_TERMINALOUTLET,Air,1
 Node,447,LOBBY_7_Z27_TERMINALOUTLET,Air,1
 Node,448,BREAK_ROOM_7_Z28_TERMINALOUTLET,Air,1
 Node,449,MECHANICAL_7_Z29_TERMINALOUTLET,Air,1
 Node,450,OFFICE_OPEN_7_Z30_TERMINALOUTLET,Air,1
 Node,451,OFFICE_PRIVATE_7_Z31_TERMINALOUTLET,Air,1
 Node,452,STORAGE_7_Z32_TERMINALOUTLET,Air,1
 Node,453,CONFERENCE_8_Z33_TERMINALOUTLET,Air,1
 Node,454,BREAK_ROOM_8_Z34_TERMINALOUTLET,Air,1
 Node,455,MECHANICAL_8_Z35_TERMINALOUTLET,Air,1
 Node,456,OFFICE_OPEN_8_Z36_TERMINALOUTLET,Air,1
 Node,457,STORAGE_8_Z37_TERMINALOUTLET,Air,1
 Node,458,CONFERENCE_9_Z38_TERMINALOUTLET,Air,1
 Node,459,BREAK_ROOM_9_Z39_TERMINALOUTLET,Air,1
 Node,460,MECHANICAL_9_Z40_TERMINALOUTLET,Air,1
 Node,461,OFFICE_OPEN_9_Z41_TERMINALOUTLET,Air,1
 Node,462,OFFICE_PRIVATE_9_Z42_TERMINALOUTLET,Air,1
! ===============================================================
! Suspicious nodes have 0 references.  It is normal for some nodes, however.
! Listing nodes with 0 references (culled from previous list):
! <Suspicious Node>,<NodeNumber>,<Node Name>,<Node Fluid Type>,<# Times Node Referenced After Definition>
 Suspicious Node,211,CONFERENCE_0 AIR NODE,Air,0
 Suspicious Node,213,MECHANICAL_0 AIR NODE,Air,0
 Suspicious Node,215,OFFICE_OPEN_0 AIR NODE,Air,0
 Suspicious Node,217,STORAGE_0 AIR NODE,Air,0
 Suspicious Node,219,LOBBY_1 AIR NODE,Air,0
 Suspicious Node,221,CONFERENCE_1 AIR NODE,Air,0
 Suspicious Node,223,BREAK_ROOM_1 AIR NODE,Air,0
 Suspicious Node,225,OFFICE_PRIVATE_1 AIR NODE,Air,0
 Suspicious Node,227,CONFERENCE_2 AIR NODE,Air,0
 Suspicious Node,229,BREAK_ROOM_2 AIR NODE,Air,0
 Suspicious Node,231,MECHANICAL_2 AIR NODE,Air,0
 Suspicious Node,233,OFFICE_OPEN_2 AIR NODE,Air,0
 Suspicious Node,235,CONFERENCE_3 AIR NODE,Air,0
 Suspicious Node,237,MECHANICAL_3 AIR NODE,Air,0
 Suspicious Node,239,OFFICE_OPEN_3 AIR NODE,Air,0
 Suspicious Node,241,STORAGE_3 AIR NODE,Air,0
 Suspicious Node,243,LOBBY_4 AIR NODE,Air,0
 Suspicious Node,245,CONFERENCE_4 AIR NODE,Air,0
 Suspicious Node,247,BREAK_ROOM_4 AIR NODE,Air,0
 Suspicious Node,249,MECHANICAL_4 AIR NODE,Air,0
 Suspicious Node,251,OFFICE_OPEN_4 AIR NODE,Air,0
 Suspicious Node,253,CONFERENCE_5 AIR NODE,Air,0
 Suspicious Node,255,BREAK_ROOM_5 AIR NODE,Air,0
 Suspicious Node,257,MECHANICAL_5 AIR NODE,Air,0
 Suspicious Node,259,OFFICE_PRIVATE_5 AIR NODE,Air,0
 Suspicious Node,261,OFFICE_PRIVATE_6 AIR NODE,Air,0
 Suspicious Node,263,LOBBY_7 AIR NODE,Air,0
 Suspicious Node,265,BREAK_ROOM_7 AIR NODE,Air,0
 Suspicious Node,267,MECHANICAL_7 AIR NODE,Air,0
 Suspicious Node,269,OFFICE_OPEN_7 AIR NODE,Air,0
 Suspicious Node,271,OFFICE_PRIVATE_7 AIR NODE,Air,0
 Suspicious Node,273,STORAGE_7 AIR NODE,Air,0
 Suspicious Node,275,CONFERENCE_8 AIR NODE,Air,0
 Suspicious Node,277,BREAK_ROOM_8 AIR NODE,Air,0
 Suspicious Node,279,MECHANICAL_8 AIR NODE,Air,0
 Suspicious Node,281,OFFICE_OPEN_8 AIR NODE,Air,0
 Suspicious Node,283,STORAGE_8 AIR NODE,Air,0
 Suspicious Node,285,CONFERENCE_9 AIR NODE,Air,0
 Suspicious Node,287,BREAK_ROOM_9 AIR NODE,Air,0
 Suspicious Node,289,MECHANICAL_9 AIR NODE,Air,0
 Suspicious Node,291,OFFICE_OPEN_9 AIR NODE,Air,0
 Suspicious Node,293,OFFICE_PRIVATE_9 AIR NODE,Air,0
! ===============================================================
! <#Branch Lists>,<Number of Branch Lists>
 #Branch Lists,42
! <Branch List>,<Branch List Count>,<Branch List Name>,<Loop Name>,<Loop Type>,<Number of Branches>
! <Branch>,<Branch Count>,<Branch Name>,<Loop Name>,<Loop Type>,<Branch Inlet Node Name>,<Branch Outlet Node Name>
 Branch List,1,CONFERENCE_0_Z1_BRANCHLIST,CONFERENCE_0_Z1_AIRLOOP,Air,1
   Branch,1,CONFERENCE_0_Z1_MAINBRANCH,CONFERENCE_0_Z1_AIRLOOP,Air,CONFERENCE_0_Z1_SUPPLYINLET,CONFERENCE_0_Z1_SUPPLYEQUIPMENTOUTLETNODE
 Branch List,2,MECHANICAL_0_Z2_BRANCHLIST,MECHANICAL_0_Z2_AIRLOOP,Air,1
   Branch,1,MECHANICAL_0_Z2_MAINBRANCH,MECHANICAL_0_Z2_AIRLOOP,Air,MECHANICAL_0_Z2_SUPPLYINLET,MECHANICAL_0_Z2_SUPPLYEQUIPMENTOUTLETNODE
 Branch List,3,OFFICE_OPEN_0_Z3_BRANCHLIST,OFFICE_OPEN_0_Z3_AIRLOOP,Air,1
   Branch,1,OFFICE_OPEN_0_Z3_MAINBRANCH,OFFICE_OPEN_0_Z3_AIRLOOP,Air,OFFICE_OPEN_0_Z3_SUPPLYINLET,OFFICE_OPEN_0_Z3_SUPPLYEQUIPMENTOUTLETNODE
 Branch List,4,STORAGE_0_Z4_BRANCHLIST,STORAGE_0_Z4_AIRLOOP,Air,1
   Branch,1,STORAGE_0_Z4_MAINBRANCH,STORAGE_0_Z4_AIRLOOP,Air,STORAGE_0_Z4_SUPPLYINLET,STORAGE_0_Z4_SUPPLYEQUIPMENTOUTLETNODE
 Branch List,5,LOBBY_1_Z5_BRANCHLIST,LOBBY_1_Z5_AIRLOOP,Air,1
   Branch,1,LOBBY_1_Z5_MAINBRANCH,LOBBY_1_Z5_AIRLOOP,Air,LOBBY_1_Z5_SUPPLYINLET,LOBBY_1_Z5_SUPPLYEQUIPMENTOUTLETNODE
 Branch List,6,CONFERENCE_1_Z6_BRANCHLIST,CONFERENCE_1_Z6_AIRLOOP,Air,1
   Branch,1,CONFERENCE_1_Z6_MAINBRANCH,CONFERENCE_1_Z6_AIRLOOP,Air,CONFERENCE_1_Z6_SUPPLYINLET,CONFERENCE_1_Z6_SUPPLYEQUIPMENTOUTLETNODE
 Branch List,7,BREAK_ROOM_1_Z7_BRANCHLIST,BREAK_ROOM_1_Z7_AIRLOOP,Air,1
   Branch,1,BREAK_ROOM_1_Z7_MAINBRANCH,BREAK_ROOM_1_Z7_AIRLOOP,Air,BREAK_ROOM_1_Z7_SUPPLYINLET,BREAK_ROOM_1_Z7_SUPPLYEQUIPMENTOUTLETNODE
 Branch List,8,OFFICE_PRIVATE_1_Z8_BRANCHLIST,OFFICE_PRIVATE_1_Z8_AIRLOOP,Air,1
   Branch,1,OFFICE_PRIVATE_1_Z8_MAINBRANCH,OFFICE_PRIVATE_1_Z8_AIRLOOP,Air,OFFICE_PRIVATE_1_Z8_SUPPLYINLET,OFFICE_PRIVATE_1_Z8_SUPPLYEQUIPMENTOUTLETNODE
 Branch List,9,CONFERENCE_2_Z9_BRANCHLIST,CONFERENCE_2_Z9_AIRLOOP,Air,1
   Branch,1,CONFERENCE_2_Z9_MAINBRANCH,CONFERENCE_2_Z9_AIRLOOP,Air,CONFERENCE_2_Z9_SUPPLYINLET,CONFERENCE_2_Z9_SUPPLYEQUIPMENTOUTLETNODE
 Branch List,10,BREAK_ROOM_2_Z10_BRANCHLIST,BREAK_ROOM_2_Z10_AIRLOOP,Air,1
   Branch,1,BREAK_ROOM_2_Z10_MAINBRANCH,BREAK_ROOM_2_Z10_AIRLOOP,Air,BREAK_ROOM_2_Z10_SUPPLYINLET,BREAK_ROOM_2_Z10_SUPPLYEQUIPMENTOUTLETNODE
 Branch List,11,MECHANICAL_2_Z11_BRANCHLIST,MECHANICAL_2_Z11_AIRLOOP,Air,1
   Branch,1,MECHANICAL_2_Z11_MAINBRANCH,MECHANICAL_2_Z11_AIRLOOP,Air,MECHANICAL_2_Z11_SUPPLYINLET,MECHANICAL_2_Z11_SUPPLYEQUIPMENTOUTLETNODE
 Branch List,12,OFFICE_OPEN_2_Z12_BRANCHLIST,OFFICE_OPEN_2_Z12_AIRLOOP,Air,1
   Branch,1,OFFICE_OPEN_2_Z12_MAINBRANCH,OFFICE_OPEN_2_Z12_AIRLOOP,Air,OFFICE_OPEN_2_Z12_SUPPLYINLET,OFFICE_OPEN_2_Z12_SUPPLYEQUIPMENTOUTLETNODE
 Branch List,13,CONFERENCE_3_Z13_BRANCHLIST,CONFERENCE_3_Z13_AIRLOOP,Air,1
   Branch,1,CONFERENCE_3_Z13_MAINBRANCH,CONFERENCE_3_Z13_AIRLOOP,Air,CONFERENCE_3_Z13_SUPPLYINLET,CONFERENCE_3_Z13_SUPPLYEQUIPMENTOUTLETNODE
 Branch List,14,MECHANICAL_3_Z14_BRANCHLIST,MECHANICAL_3_Z14_AIRLOOP,Air,1
   Branch,1,MECHANICAL_3_Z14_MAINBRANCH,MECHANICAL_3_Z14_AIRLOOP,Air,MECHANICAL_3_Z14_SUPPLYINLET,MECHANICAL_3_Z14_SUPPLYEQUIPMENTOUTLETNODE
 Branch List,15,OFFICE_OPEN_3_Z15_BRANCHLIST,OFFICE_OPEN_3_Z15_AIRLOOP,Air,1
   Branch,1,OFFICE_OPEN_3_Z15_MAINBRANCH,OFFICE_OPEN_3_Z15_AIRLOOP,Air,OFFICE_OPEN_3_Z15_SUPPLYINLET,OFFICE_OPEN_3_Z15_SUPPLYEQUIPMENTOUTLETNODE
 Branch List,16,STORAGE_3_Z16_BRANCHLIST,STORAGE_3_Z16_AIRLOOP,Air,1
   Branch,1,STORAGE_3_Z16_MAINBRANCH,STORAGE_3_Z16_AIRLOOP,Air,STORAGE_3_Z16_SUPPLYINLET,STORAGE_3_Z16_SUPPLYEQUIPMENTOUTLETNODE
 Branch List,17,LOBBY_4_Z17_BRANCHLIST,LOBBY_4_Z17_AIRLOOP,Air,1
   Branch,1,LOBBY_4_Z17_MAINBRANCH,LOBBY_4_Z17_AIRLOOP,Air,LOBBY_4_Z17_SUPPLYINLET,LOBBY_4_Z17_SUPPLYEQUIPMENTOUTLETNODE
 Branch List,18,CONFERENCE_4_Z18_BRANCHLIST,CONFERENCE_4_Z18_AIRLOOP,Air,1
   Branch,1,CONFERENCE_4_Z18_MAINBRANCH,CONFERENCE_4_Z18_AIRLOOP,Air,CONFERENCE_4_Z18_SUPPLYINLET,CONFERENCE_4_Z18_SUPPLYEQUIPMENTOUTLETNODE
 Branch List,19,BREAK_ROOM_4_Z19_BRANCHLIST,BREAK_ROOM_4_Z19_AIRLOOP,Air,1
   Branch,1,BREAK_ROOM_4_Z19_MAINBRANCH,BREAK_ROOM_4_Z19_AIRLOOP,Air,BREAK_ROOM_4_Z19_SUPPLYINLET,BREAK_ROOM_4_Z19_SUPPLYEQUIPMENTOUTLETNODE
 Branch List,20,MECHANICAL_4_Z20_BRANCHLIST,MECHANICAL_4_Z20_AIRLOOP,Air,1
   Branch,1,MECHANICAL_4_Z20_MAINBRANCH,MECHANICAL_4_Z20_AIRLOOP,Air,MECHANICAL_4_Z20_SUPPLYINLET,MECHANICAL_4_Z20_SUPPLYEQUIPMENTOUTLETNODE
 Branch List,21,OFFICE_OPEN_4_Z21_BRANCHLIST,OFFICE_OPEN_4_Z21_AIRLOOP,Air,1
   Branch,1,OFFICE_OPEN_4_Z21_MAINBRANCH,OFFICE_OPEN_4_Z21_AIRLOOP,Air,OFFICE_OPEN_4_Z21_SUPPLYINLET,OFFICE_OPEN_4_Z21_SUPPLYEQUIPMENTOUTLETNODE
 Branch List,22,CONFERENCE_5_Z22_BRANCHLIST,CONFERENCE_5_Z22_AIRLOOP,Air,1
   Branch,1,CONFERENCE_5_Z22_MAINBRANCH,CONFERENCE_5_Z22_AIRLOOP,Air,CONFERENCE_5_Z22_SUPPLYINLET,CONFERENCE_5_Z22_SUPPLYEQUIPMENTOUTLETNODE
 Branch List,23,BREAK_ROOM_5_Z23_BRANCHLIST,BREAK_ROOM_5_Z23_AIRLOOP,Air,1
   Branch,1,BREAK_ROOM_5_Z23_MAINBRANCH,BREAK_ROOM_5_Z23_AIRLOOP,Air,BREAK_ROOM_5_Z23_SUPPLYINLET,BREAK_ROOM_5_Z23_SUPPLYEQUIPMENTOUTLETNODE
 Branch List,24,MECHANICAL_5_Z24_BRANCHLIST,MECHANICAL_5_Z24_AIRLOOP,Air,1
   Branch,1,MECHANICAL_5_Z24_MAINBRANCH,MECHANICAL_5_Z24_AIRLOOP,Air,MECHANICAL_5_Z24_SUPPLYINLET,MECHANICAL_5_Z24_SUPPLYEQUIPMENTOUTLETNODE
 Branch List,25,OFFICE_PRIVATE_5_Z25_BRANCHLIST,OFFICE_PRIVATE_5_Z25_AIRLOOP,Air,1
   Branch,1,OFFICE_PRIVATE_5_Z25_MAINBRANCH,OFFICE_PRIVATE_5_Z25_AIRLOOP,Air,OFFICE_PRIVATE_5_Z25_SUPPLYINLET,OFFICE_PRIVATE_5_Z25_SUPPLYEQUIPMENTOUTLETNODE
 Branch List,26,OFFICE_PRIVATE_6_Z26_BRANCHLIST,OFFICE_PRIVATE_6_Z26_AIRLOOP,Air,1
   Branch,1,OFFICE_PRIVATE_6_Z26_MAINBRANCH,OFFICE_PRIVATE_6_Z26_AIRLOOP,Air,OFFICE_PRIVATE_6_Z26_SUPPLYINLET,OFFICE_PRIVATE_6_Z26_SUPPLYEQUIPMENTOUTLETNODE
 Branch List,27,LOBBY_7_Z27_BRANCHLIST,LOBBY_7_Z27_AIRLOOP,Air,1
   Branch,1,LOBBY_7_Z27_MAINBRANCH,LOBBY_7_Z27_AIRLOOP,Air,LOBBY_7_Z27_SUPPLYINLET,LOBBY_7_Z27_SUPPLYEQUIPMENTOUTLETNODE
 Branch List,28,BREAK_ROOM_7_Z28_BRANCHLIST,BREAK_ROOM_7_Z28_AIRLOOP,Air,1
   Branch,1,BREAK_ROOM_7_Z28_MAINBRANCH,BREAK_ROOM_7_Z28_AIRLOOP,Air,BREAK_ROOM_7_Z28_SUPPLYINLET,BREAK_ROOM_7_Z28_SUPPLYEQUIPMENTOUTLETNODE
 Branch List,29,MECHANICAL_7_Z29_BRANCHLIST,MECHANICAL_7_Z29_AIRLOOP,Air,1
   Branch,1,MECHANICAL_7_Z29_MAINBRANCH,MECHANICAL_7_Z29_AIRLOOP,Air,MECHANICAL_7_Z29_SUPPLYINLET,MECHANICAL_7_Z29_SUPPLYEQUIPMENTOUTLETNODE
 Branch List,30,OFFICE_OPEN_7_Z30_BRANCHLIST,OFFICE_OPEN_7_Z30_AIRLOOP,Air,1
   Branch,1,OFFICE_OPEN_7_Z30_MAINBRANCH,OFFICE_OPEN_7_Z30_AIRLOOP,Air,OFFICE_OPEN_7_Z30_SUPPLYINLET,OFFICE_OPEN_7_Z30_SUPPLYEQUIPMENTOUTLETNODE
 Branch List,31,OFFICE_PRIVATE_7_Z31_BRANCHLIST,OFFICE_PRIVATE_7_Z31_AIRLOOP,Air,1
   Branch,1,OFFICE_PRIVATE_7_Z31_MAINBRANCH,OFFICE_PRIVATE_7_Z31_AIRLOOP,Air,OFFICE_PRIVATE_7_Z31_SUPPLYINLET,OFFICE_PRIVATE_7_Z31_SUPPLYEQUIPMENTOUTLETNODE
 Branch List,32,STORAGE_7_Z32_BRANCHLIST,STORAGE_7_Z32_AIRLOOP,Air,1
   Branch,1,STORAGE_7_Z32_MAINBRANCH,STORAGE_7_Z32_AIRLOOP,Air,STORAGE_7_Z32_SUPPLYINLET,STORAGE_7_Z32_SUPPLYEQUIPMENTOUTLETNODE
 Branch List,33,CONFERENCE_8_Z33_BRANCHLIST,CONFERENCE_8_Z33_AIRLOOP,Air,1
   Branch,1,CONFERENCE_8_Z33_MAINBRANCH,CONFERENCE_8_Z33_AIRLOOP,Air,CONFERENCE_8_Z33_SUPPLYINLET,CONFERENCE_8_Z33_SUPPLYEQUIPMENTOUTLETNODE
 Branch List,34,BREAK_ROOM_8_Z34_BRANCHLIST,BREAK_ROOM_8_Z34_AIRLOOP,Air,1
   Branch,1,BREAK_ROOM_8_Z34_MAINBRANCH,BREAK_ROOM_8_Z34_AIRLOOP,Air,BREAK_ROOM_8_Z34_SUPPLYINLET,BREAK_ROOM_8_Z34_SUPPLYEQUIPMENTOUTLETNODE
 Branch List,35,MECHANICAL_8_Z35_BRANCHLIST,MECHANICAL_8_Z35_AIRLOOP,Air,1
   Branch,1,MECHANICAL_8_Z35_MAINBRANCH,MECHANICAL_8_Z35_AIRLOOP,Air,MECHANICAL_8_Z35_SUPPLYINLET,MECHANICAL_8_Z35_SUPPLYEQUIPMENTOUTLETNODE
 Branch List,36,OFFICE_OPEN_8_Z36_BRANCHLIST,OFFICE_OPEN_8_Z36_AIRLOOP,Air,1
   Branch,1,OFFICE_OPEN_8_Z36_MAINBRANCH,OFFICE_OPEN_8_Z36_AIRLOOP,Air,OFFICE_OPEN_8_Z36_SUPPLYINLET,OFFICE_OPEN_8_Z36_SUPPLYEQUIPMENTOUTLETNODE
 Branch List,37,STORAGE_8_Z37_BRANCHLIST,STORAGE_8_Z37_AIRLOOP,Air,1
   Branch,1,STORAGE_8_Z37_MAINBRANCH,STORAGE_8_Z37_AIRLOOP,Air,STORAGE_8_Z37_SUPPLYINLET,STORAGE_8_Z37_SUPPLYEQUIPMENTOUTLETNODE
 Branch List,38,CONFERENCE_9_Z38_BRANCHLIST,CONFERENCE_9_Z38_AIRLOOP,Air,1
   Branch,1,CONFERENCE_9_Z38_MAINBRANCH,CONFERENCE_9_Z38_AIRLOOP,Air,CONFERENCE_9_Z38_SUPPLYINLET,CONFERENCE_9_Z38_SUPPLYEQUIPMENTOUTLETNODE
 Branch List,39,BREAK_ROOM_9_Z39_BRANCHLIST,BREAK_ROOM_9_Z39_AIRLOOP,Air,1
   Branch,1,BREAK_ROOM_9_Z39_MAINBRANCH,BREAK_ROOM_9_Z39_AIRLOOP,Air,BREAK_ROOM_9_Z39_SUPPLYINLET,BREAK_ROOM_9_Z39_SUPPLYEQUIPMENTOUTLETNODE
 Branch List,40,MECHANICAL_9_Z40_BRANCHLIST,MECHANICAL_9_Z40_AIRLOOP,Air,1
   Branch,1,MECHANICAL_9_Z40_MAINBRANCH,MECHANICAL_9_Z40_AIRLOOP,Air,MECHANICAL_9_Z40_SUPPLYINLET,MECHANICAL_9_Z40_SUPPLYEQUIPMENTOUTLETNODE
 Branch List,41,OFFICE_OPEN_9_Z41_BRANCHLIST,OFFICE_OPEN_9_Z41_AIRLOOP,Air,1
   Branch,1,OFFICE_OPEN_9_Z41_MAINBRANCH,OFFICE_OPEN_9_Z41_AIRLOOP,Air,OFFICE_OPEN_9_Z41_SUPPLYINLET,OFFICE_OPEN_9_Z41_SUPPLYEQUIPMENTOUTLETNODE
 Branch List,42,OFFICE_PRIVATE_9_Z42_BRANCHLIST,OFFICE_PRIVATE_9_Z42_AIRLOOP,Air,1
   Branch,1,OFFICE_PRIVATE_9_Z42_MAINBRANCH,OFFICE_PRIVATE_9_Z42_AIRLOOP,Air,OFFICE_PRIVATE_9_Z42_SUPPLYINLET,OFFICE_PRIVATE_9_Z42_SUPPLYEQUIPMENTOUTLETNODE
! ===============================================================
! <#Supply Air Paths>,<Number of Supply Air Paths>
 #Supply Air Paths,42
! <Supply Air Path>,<Supply Air Path Count>,<Supply Air Path Name>,<AirLoopHVAC Name>
! <#Components on Supply Air Path>,<Number of Components>
! <Supply Air Path Component>,<Component Count>,<Component Type>,<Component Name>,<AirLoopHVAC Name>
! <#Outlet Nodes on Supply Air Path Component>,<Number of Nodes>
! <Supply Air Path Component Nodes>,<Node Count>,<Component Type>,<Component Name>,<Inlet Node Name>,<Outlet Node Name>,<AirLoopHVAC Name>
 Supply Air Path,1,CONFERENCE_0_Z1,CONFERENCE_0_Z1_AIRLOOP
   #Components on Supply Air Path,1
   Supply Air Path Component,1,AIRLOOPHVAC:ZONESPLITTER,CONFERENCE_0_Z1_SUPPLYSPLITTER,CONFERENCE_0_Z1_AIRLOOP
     #Outlet Nodes on Supply Air Path Component,1
     Supply Air Path Component Nodes,1,AIRLOOPHVAC:ZONESPLITTER,CONFERENCE_0_Z1_SUPPLYSPLITTER,CONFERENCE_0_Z1_ZONEEQUIPMENTINLET,CONFERENCE_0_Z1_TERMINALINLET,CONFERENCE_0_Z1_AIRLOOP
! <#Nodes on Supply Air Path>,<Number of Nodes>
! <Supply Air Path Node>,<Node Type>,<Node Count>,<Node Name>,<AirLoopHVAC Name>
#Nodes on Supply Air Path,2
   Supply Air Path Node,Inlet Node,1,CONFERENCE_0_Z1_ZONEEQUIPMENTINLET,CONFERENCE_0_Z1_AIRLOOP
   Supply Air Path Node,Outlet Node,2,CONFERENCE_0_Z1_TERMINALINLET,CONFERENCE_0_Z1_AIRLOOP
 Supply Air Path,2,MECHANICAL_0_Z2,MECHANICAL_0_Z2_AIRLOOP
   #Components on Supply Air Path,1
   Supply Air Path Component,1,AIRLOOPHVAC:ZONESPLITTER,MECHANICAL_0_Z2_SUPPLYSPLITTER,MECHANICAL_0_Z2_AIRLOOP
     #Outlet Nodes on Supply Air Path Component,1
     Supply Air Path Component Nodes,1,AIRLOOPHVAC:ZONESPLITTER,MECHANICAL_0_Z2_SUPPLYSPLITTER,MECHANICAL_0_Z2_ZONEEQUIPMENTINLET,MECHANICAL_0_Z2_TERMINALINLET,MECHANICAL_0_Z2_AIRLOOP
! <#Nodes on Supply Air Path>,<Number of Nodes>
! <Supply Air Path Node>,<Node Type>,<Node Count>,<Node Name>,<AirLoopHVAC Name>
#Nodes on Supply Air Path,2
   Supply Air Path Node,Inlet Node,1,MECHANICAL_0_Z2_ZONEEQUIPMENTINLET,MECHANICAL_0_Z2_AIRLOOP
   Supply Air Path Node,Outlet Node,2,MECHANICAL_0_Z2_TERMINALINLET,MECHANICAL_0_Z2_AIRLOOP
 Supply Air Path,3,OFFICE_OPEN_0_Z3,OFFICE_OPEN_0_Z3_AIRLOOP
   #Components on Supply Air Path,1
   Supply Air Path Component,1,AIRLOOPHVAC:ZONESPLITTER,OFFICE_OPEN_0_Z3_SUPPLYSPLITTER,OFFICE_OPEN_0_Z3_AIRLOOP
     #Outlet Nodes on Supply Air Path Component,1
     Supply Air Path Component Nodes,1,AIRLOOPHVAC:ZONESPLITTER,OFFICE_OPEN_0_Z3_SUPPLYSPLITTER,OFFICE_OPEN_0_Z3_ZONEEQUIPMENTINLET,OFFICE_OPEN_0_Z3_TERMINALINLET,OFFICE_OPEN_0_Z3_AIRLOOP
! <#Nodes on Supply Air Path>,<Number of Nodes>
! <Supply Air Path Node>,<Node Type>,<Node Count>,<Node Name>,<AirLoopHVAC Name>
#Nodes on Supply Air Path,2
   Supply Air Path Node,Inlet Node,1,OFFICE_OPEN_0_Z3_ZONEEQUIPMENTINLET,OFFICE_OPEN_0_Z3_AIRLOOP
   Supply Air Path Node,Outlet Node,2,OFFICE_OPEN_0_Z3_TERMINALINLET,OFFICE_OPEN_0_Z3_AIRLOOP
 Supply Air Path,4,STORAGE_0_Z4,STORAGE_0_Z4_AIRLOOP
   #Components on Supply Air Path,1
   Supply Air Path Component,1,AIRLOOPHVAC:ZONESPLITTER,STORAGE_0_Z4_SUPPLYSPLITTER,STORAGE_0_Z4_AIRLOOP
     #Outlet Nodes on Supply Air Path Component,1
     Supply Air Path Component Nodes,1,AIRLOOPHVAC:ZONESPLITTER,STORAGE_0_Z4_SUPPLYSPLITTER,STORAGE_0_Z4_ZONEEQUIPMENTINLET,STORAGE_0_Z4_TERMINALINLET,STORAGE_0_Z4_AIRLOOP
! <#Nodes on Supply Air Path>,<Number of Nodes>
! <Supply Air Path Node>,<Node Type>,<Node Count>,<Node Name>,<AirLoopHVAC Name>
#Nodes on Supply Air Path,2
   Supply Air Path Node,Inlet Node,1,STORAGE_0_Z4_ZONEEQUIPMENTINLET,STORAGE_0_Z4_AIRLOOP
   Supply Air Path Node,Outlet Node,2,STORAGE_0_Z4_TERMINALINLET,STORAGE_0_Z4_AIRLOOP
 Supply Air Path,5,LOBBY_1_Z5,LOBBY_1_Z5_AIRLOOP
   #Components on Supply Air Path,1
   Supply Air Path Component,1,AIRLOOPHVAC:ZONESPLITTER,LOBBY_1_Z5_SUPPLYSPLITTER,LOBBY_1_Z5_AIRLOOP
     #Outlet Nodes on Supply Air Path Component,1
     Supply Air Path Component Nodes,1,AIRLOOPHVAC:ZONESPLITTER,LOBBY_1_Z5_SUPPLYSPLITTER,LOBBY_1_Z5_ZONEEQUIPMENTINLET,LOBBY_1_Z5_TERMINALINLET,LOBBY_1_Z5_AIRLOOP
! <#Nodes on Supply Air Path>,<Number of Nodes>
! <Supply Air Path Node>,<Node Type>,<Node Count>,<Node Name>,<AirLoopHVAC Name>
#Nodes on Supply Air Path,2
   Supply Air Path Node,Inlet Node,1,LOBBY_1_Z5_ZONEEQUIPMENTINLET,LOBBY_1_Z5_AIRLOOP
   Supply Air Path Node,Outlet Node,2,LOBBY_1_Z5_TERMINALINLET,LOBBY_1_Z5_AIRLOOP
 Supply Air Path,6,CONFERENCE_1_Z6,CONFERENCE_1_Z6_AIRLOOP
   #Components on Supply Air Path,1
   Supply Air Path Component,1,AIRLOOPHVAC:ZONESPLITTER,CONFERENCE_1_Z6_SUPPLYSPLITTER,CONFERENCE_1_Z6_AIRLOOP
     #Outlet Nodes on Supply Air Path Component,1
     Supply Air Path Component Nodes,1,AIRLOOPHVAC:ZONESPLITTER,CONFERENCE_1_Z6_SUPPLYSPLITTER,CONFERENCE_1_Z6_ZONEEQUIPMENTINLET,CONFERENCE_1_Z6_TERMINALINLET,CONFERENCE_1_Z6_AIRLOOP
! <#Nodes on Supply Air Path>,<Number of Nodes>
! <Supply Air Path Node>,<Node Type>,<Node Count>,<Node Name>,<AirLoopHVAC Name>
#Nodes on Supply Air Path,2
   Supply Air Path Node,Inlet Node,1,CONFERENCE_1_Z6_ZONEEQUIPMENTINLET,CONFERENCE_1_Z6_AIRLOOP
   Supply Air Path Node,Outlet Node,2,CONFERENCE_1_Z6_TERMINALINLET,CONFERENCE_1_Z6_AIRLOOP
 Supply Air Path,7,BREAK_ROOM_1_Z7,BREAK_ROOM_1_Z7_AIRLOOP
   #Components on Supply Air Path,1
   Supply Air Path Component,1,AIRLOOPHVAC:ZONESPLITTER,BREAK_ROOM_1_Z7_SUPPLYSPLITTER,BREAK_ROOM_1_Z7_AIRLOOP
     #Outlet Nodes on Supply Air Path Component,1
     Supply Air Path Component Nodes,1,AIRLOOPHVAC:ZONESPLITTER,BREAK_ROOM_1_Z7_SUPPLYSPLITTER,BREAK_ROOM_1_Z7_ZONEEQUIPMENTINLET,BREAK_ROOM_1_Z7_TERMINALINLET,BREAK_ROOM_1_Z7_AIRLOOP
! <#Nodes on Supply Air Path>,<Number of Nodes>
! <Supply Air Path Node>,<Node Type>,<Node Count>,<Node Name>,<AirLoopHVAC Name>
#Nodes on Supply Air Path,2
   Supply Air Path Node,Inlet Node,1,BREAK_ROOM_1_Z7_ZONEEQUIPMENTINLET,BREAK_ROOM_1_Z7_AIRLOOP
   Supply Air Path Node,Outlet Node,2,BREAK_ROOM_1_Z7_TERMINALINLET,BREAK_ROOM_1_Z7_AIRLOOP
 Supply Air Path,8,OFFICE_PRIVATE_1_Z8,OFFICE_PRIVATE_1_Z8_AIRLOOP
   #Components on Supply Air Path,1
   Supply Air Path Component,1,AIRLOOPHVAC:ZONESPLITTER,OFFICE_PRIVATE_1_Z8_SUPPLYSPLITTER,OFFICE_PRIVATE_1_Z8_AIRLOOP
     #Outlet Nodes on Supply Air Path Component,1
     Supply Air Path Component Nodes,1,AIRLOOPHVAC:ZONESPLITTER,OFFICE_PRIVATE_1_Z8_SUPPLYSPLITTER,OFFICE_PRIVATE_1_Z8_ZONEEQUIPMENTINLET,OFFICE_PRIVATE_1_Z8_TERMINALINLET,OFFICE_PRIVATE_1_Z8_AIRLOOP
! <#Nodes on Supply Air Path>,<Number of Nodes>
! <Supply Air Path Node>,<Node Type>,<Node Count>,<Node Name>,<AirLoopHVAC Name>
#Nodes on Supply Air Path,2
   Supply Air Path Node,Inlet Node,1,OFFICE_PRIVATE_1_Z8_ZONEEQUIPMENTINLET,OFFICE_PRIVATE_1_Z8_AIRLOOP
   Supply Air Path Node,Outlet Node,2,OFFICE_PRIVATE_1_Z8_TERMINALINLET,OFFICE_PRIVATE_1_Z8_AIRLOOP
 Supply Air Path,9,CONFERENCE_2_Z9,CONFERENCE_2_Z9_AIRLOOP
   #Components on Supply Air Path,1
   Supply Air Path Component,1,AIRLOOPHVAC:ZONESPLITTER,CONFERENCE_2_Z9_SUPPLYSPLITTER,CONFERENCE_2_Z9_AIRLOOP
     #Outlet Nodes on Supply Air Path Component,1
     Supply Air Path Component Nodes,1,AIRLOOPHVAC:ZONESPLITTER,CONFERENCE_2_Z9_SUPPLYSPLITTER,CONFERENCE_2_Z9_ZONEEQUIPMENTINLET,CONFERENCE_2_Z9_TERMINALINLET,CONFERENCE_2_Z9_AIRLOOP
! <#Nodes on Supply Air Path>,<Number of Nodes>
! <Supply Air Path Node>,<Node Type>,<Node Count>,<Node Name>,<AirLoopHVAC Name>
#Nodes on Supply Air Path,2
   Supply Air Path Node,Inlet Node,1,CONFERENCE_2_Z9_ZONEEQUIPMENTINLET,CONFERENCE_2_Z9_AIRLOOP
   Supply Air Path Node,Outlet Node,2,CONFERENCE_2_Z9_TERMINALINLET,CONFERENCE_2_Z9_AIRLOOP
 Supply Air Path,10,BREAK_ROOM_2_Z10,BREAK_ROOM_2_Z10_AIRLOOP
   #Components on Supply Air Path,1
   Supply Air Path Component,1,AIRLOOPHVAC:ZONESPLITTER,BREAK_ROOM_2_Z10_SUPPLYSPLITTER,BREAK_ROOM_2_Z10_AIRLOOP
     #Outlet Nodes on Supply Air Path Component,1
     Supply Air Path Component Nodes,1,AIRLOOPHVAC:ZONESPLITTER,BREAK_ROOM_2_Z10_SUPPLYSPLITTER,BREAK_ROOM_2_Z10_ZONEEQUIPMENTINLET,BREAK_ROOM_2_Z10_TERMINALINLET,BREAK_ROOM_2_Z10_AIRLOOP
! <#Nodes on Supply Air Path>,<Number of Nodes>
! <Supply Air Path Node>,<Node Type>,<Node Count>,<Node Name>,<AirLoopHVAC Name>
#Nodes on Supply Air Path,2
   Supply Air Path Node,Inlet Node,1,BREAK_ROOM_2_Z10_ZONEEQUIPMENTINLET,BREAK_ROOM_2_Z10_AIRLOOP
   Supply Air Path Node,Outlet Node,2,BREAK_ROOM_2_Z10_TERMINALINLET,BREAK_ROOM_2_Z10_AIRLOOP
 Supply Air Path,11,MECHANICAL_2_Z11,MECHANICAL_2_Z11_AIRLOOP
   #Components on Supply Air Path,1
   Supply Air Path Component,1,AIRLOOPHVAC:ZONESPLITTER,MECHANICAL_2_Z11_SUPPLYSPLITTER,MECHANICAL_2_Z11_AIRLOOP
     #Outlet Nodes on Supply Air Path Component,1
     Supply Air Path Component Nodes,1,AIRLOOPHVAC:ZONESPLITTER,MECHANICAL_2_Z11_SUPPLYSPLITTER,MECHANICAL_2_Z11_ZONEEQUIPMENTINLET,MECHANICAL_2_Z11_TERMINALINLET,MECHANICAL_2_Z11_AIRLOOP
! <#Nodes on Supply Air Path>,<Number of Nodes>
! <Supply Air Path Node>,<Node Type>,<Node Count>,<Node Name>,<AirLoopHVAC Name>
#Nodes on Supply Air Path,2
   Supply Air Path Node,Inlet Node,1,MECHANICAL_2_Z11_ZONEEQUIPMENTINLET,MECHANICAL_2_Z11_AIRLOOP
   Supply Air Path Node,Outlet Node,2,MECHANICAL_2_Z11_TERMINALINLET,MECHANICAL_2_Z11_AIRLOOP
 Supply Air Path,12,OFFICE_OPEN_2_Z12,OFFICE_OPEN_2_Z12_AIRLOOP
   #Components on Supply Air Path,1
   Supply Air Path Component,1,AIRLOOPHVAC:ZONESPLITTER,OFFICE_OPEN_2_Z12_SUPPLYSPLITTER,OFFICE_OPEN_2_Z12_AIRLOOP
     #Outlet Nodes on Supply Air Path Component,1
     Supply Air Path Component Nodes,1,AIRLOOPHVAC:ZONESPLITTER,OFFICE_OPEN_2_Z12_SUPPLYSPLITTER,OFFICE_OPEN_2_Z12_ZONEEQUIPMENTINLET,OFFICE_OPEN_2_Z12_TERMINALINLET,OFFICE_OPEN_2_Z12_AIRLOOP
! <#Nodes on Supply Air Path>,<Number of Nodes>
! <Supply Air Path Node>,<Node Type>,<Node Count>,<Node Name>,<AirLoopHVAC Name>
#Nodes on Supply Air Path,2
   Supply Air Path Node,Inlet Node,1,OFFICE_OPEN_2_Z12_ZONEEQUIPMENTINLET,OFFICE_OPEN_2_Z12_AIRLOOP
   Supply Air Path Node,Outlet Node,2,OFFICE_OPEN_2_Z12_TERMINALINLET,OFFICE_OPEN_2_Z12_AIRLOOP
 Supply Air Path,13,CONFERENCE_3_Z13,CONFERENCE_3_Z13_AIRLOOP
   #Components on Supply Air Path,1
   Supply Air Path Component,1,AIRLOOPHVAC:ZONESPLITTER,CONFERENCE_3_Z13_SUPPLYSPLITTER,CONFERENCE_3_Z13_AIRLOOP
     #Outlet Nodes on Supply Air Path Component,1
     Supply Air Path Component Nodes,1,AIRLOOPHVAC:ZONESPLITTER,CONFERENCE_3_Z13_SUPPLYSPLITTER,CONFERENCE_3_Z13_ZONEEQUIPMENTINLET,CONFERENCE_3_Z13_TERMINALINLET,CONFERENCE_3_Z13_AIRLOOP
! <#Nodes on Supply Air Path>,<Number of Nodes>
! <Supply Air Path Node>,<Node Type>,<Node Count>,<Node Name>,<AirLoopHVAC Name>
#Nodes on Supply Air Path,2
   Supply Air Path Node,Inlet Node,1,CONFERENCE_3_Z13_ZONEEQUIPMENTINLET,CONFERENCE_3_Z13_AIRLOOP
   Supply Air Path Node,Outlet Node,2,CONFERENCE_3_Z13_TERMINALINLET,CONFERENCE_3_Z13_AIRLOOP
 Supply Air Path,14,MECHANICAL_3_Z14,MECHANICAL_3_Z14_AIRLOOP
   #Components on Supply Air Path,1
   Supply Air Path Component,1,AIRLOOPHVAC:ZONESPLITTER,MECHANICAL_3_Z14_SUPPLYSPLITTER,MECHANICAL_3_Z14_AIRLOOP
     #Outlet Nodes on Supply Air Path Component,1
     Supply Air Path Component Nodes,1,AIRLOOPHVAC:ZONESPLITTER,MECHANICAL_3_Z14_SUPPLYSPLITTER,MECHANICAL_3_Z14_ZONEEQUIPMENTINLET,MECHANICAL_3_Z14_TERMINALINLET,MECHANICAL_3_Z14_AIRLOOP
! <#Nodes on Supply Air Path>,<Number of Nodes>
! <Supply Air Path Node>,<Node Type>,<Node Count>,<Node Name>,<AirLoopHVAC Name>
#Nodes on Supply Air Path,2
   Supply Air Path Node,Inlet Node,1,MECHANICAL_3_Z14_ZONEEQUIPMENTINLET,MECHANICAL_3_Z14_AIRLOOP
   Supply Air Path Node,Outlet Node,2,MECHANICAL_3_Z14_TERMINALINLET,MECHANICAL_3_Z14_AIRLOOP
 Supply Air Path,15,OFFICE_OPEN_3_Z15,OFFICE_OPEN_3_Z15_AIRLOOP
   #Components on Supply Air Path,1
   Supply Air Path Component,1,AIRLOOPHVAC:ZONESPLITTER,OFFICE_OPEN_3_Z15_SUPPLYSPLITTER,OFFICE_OPEN_3_Z15_AIRLOOP
     #Outlet Nodes on Supply Air Path Component,1
     Supply Air Path Component Nodes,1,AIRLOOPHVAC:ZONESPLITTER,OFFICE_OPEN_3_Z15_SUPPLYSPLITTER,OFFICE_OPEN_3_Z15_ZONEEQUIPMENTINLET,OFFICE_OPEN_3_Z15_TERMINALINLET,OFFICE_OPEN_3_Z15_AIRLOOP
! <#Nodes on Supply Air Path>,<Number of Nodes>
! <Supply Air Path Node>,<Node Type>,<Node Count>,<Node Name>,<AirLoopHVAC Name>
#Nodes on Supply Air Path,2
   Supply Air Path Node,Inlet Node,1,OFFICE_OPEN_3_Z15_ZONEEQUIPMENTINLET,OFFICE_OPEN_3_Z15_AIRLOOP
   Supply Air Path Node,Outlet Node,2,OFFICE_OPEN_3_Z15_TERMINALINLET,OFFICE_OPEN_3_Z15_AIRLOOP
 Supply Air Path,16,STORAGE_3_Z16,STORAGE_3_Z16_AIRLOOP
   #Components on Supply Air Path,1
   Supply Air Path Component,1,AIRLOOPHVAC:ZONESPLITTER,STORAGE_3_Z16_SUPPLYSPLITTER,STORAGE_3_Z16_AIRLOOP
     #Outlet Nodes on Supply Air Path Component,1
     Supply Air Path Component Nodes,1,AIRLOOPHVAC:ZONESPLITTER,STORAGE_3_Z16_SUPPLYSPLITTER,STORAGE_3_Z16_ZONEEQUIPMENTINLET,STORAGE_3_Z16_TERMINALINLET,STORAGE_3_Z16_AIRLOOP
! <#Nodes on Supply Air Path>,<Number of Nodes>
! <Supply Air Path Node>,<Node Type>,<Node Count>,<Node Name>,<AirLoopHVAC Name>
#Nodes on Supply Air Path,2
   Supply Air Path Node,Inlet Node,1,STORAGE_3_Z16_ZONEEQUIPMENTINLET,STORAGE_3_Z16_AIRLOOP
   Supply Air Path Node,Outlet Node,2,STORAGE_3_Z16_TERMINALINLET,STORAGE_3_Z16_AIRLOOP
 Supply Air Path,17,LOBBY_4_Z17,LOBBY_4_Z17_AIRLOOP
   #Components on Supply Air Path,1
   Supply Air Path Component,1,AIRLOOPHVAC:ZONESPLITTER,LOBBY_4_Z17_SUPPLYSPLITTER,LOBBY_4_Z17_AIRLOOP
     #Outlet Nodes on Supply Air Path Component,1
     Supply Air Path Component Nodes,1,AIRLOOPHVAC:ZONESPLITTER,LOBBY_4_Z17_SUPPLYSPLITTER,LOBBY_4_Z17_ZONEEQUIPMENTINLET,LOBBY_4_Z17_TERMINALINLET,LOBBY_4_Z17_AIRLOOP
! <#Nodes on Supply Air Path>,<Number of Nodes>
! <Supply Air Path Node>,<Node Type>,<Node Count>,<Node Name>,<AirLoopHVAC Name>
#Nodes on Supply Air Path,2
   Supply Air Path Node,Inlet Node,1,LOBBY_4_Z17_ZONEEQUIPMENTINLET,LOBBY_4_Z17_AIRLOOP
   Supply Air Path Node,Outlet Node,2,LOBBY_4_Z17_TERMINALINLET,LOBBY_4_Z17_AIRLOOP
 Supply Air Path,18,CONFERENCE_4_Z18,CONFERENCE_4_Z18_AIRLOOP
   #Components on Supply Air Path,1
   Supply Air Path Component,1,AIRLOOPHVAC:ZONESPLITTER,CONFERENCE_4_Z18_SUPPLYSPLITTER,CONFERENCE_4_Z18_AIRLOOP
     #Outlet Nodes on Supply Air Path Component,1
     Supply Air Path Component Nodes,1,AIRLOOPHVAC:ZONESPLITTER,CONFERENCE_4_Z18_SUPPLYSPLITTER,CONFERENCE_4_Z18_ZONEEQUIPMENTINLET,CONFERENCE_4_Z18_TERMINALINLET,CONFERENCE_4_Z18_AIRLOOP
! <#Nodes on Supply Air Path>,<Number of Nodes>
! <Supply Air Path Node>,<Node Type>,<Node Count>,<Node Name>,<AirLoopHVAC Name>
#Nodes on Supply Air Path,2
   Supply Air Path Node,Inlet Node,1,CONFERENCE_4_Z18_ZONEEQUIPMENTINLET,CONFERENCE_4_Z18_AIRLOOP
   Supply Air Path Node,Outlet Node,2,CONFERENCE_4_Z18_TERMINALINLET,CONFERENCE_4_Z18_AIRLOOP
 Supply Air Path,19,BREAK_ROOM_4_Z19,BREAK_ROOM_4_Z19_AIRLOOP
   #Components on Supply Air Path,1
   Supply Air Path Component,1,AIRLOOPHVAC:ZONESPLITTER,BREAK_ROOM_4_Z19_SUPPLYSPLITTER,BREAK_ROOM_4_Z19_AIRLOOP
     #Outlet Nodes on Supply Air Path Component,1
     Supply Air Path Component Nodes,1,AIRLOOPHVAC:ZONESPLITTER,BREAK_ROOM_4_Z19_SUPPLYSPLITTER,BREAK_ROOM_4_Z19_ZONEEQUIPMENTINLET,BREAK_ROOM_4_Z19_TERMINALINLET,BREAK_ROOM_4_Z19_AIRLOOP
! <#Nodes on Supply Air Path>,<Number of Nodes>
! <Supply Air Path Node>,<Node Type>,<Node Count>,<Node Name>,<AirLoopHVAC Name>
#Nodes on Supply Air Path,2
   Supply Air Path Node,Inlet Node,1,BREAK_ROOM_4_Z19_ZONEEQUIPMENTINLET,BREAK_ROOM_4_Z19_AIRLOOP
   Supply Air Path Node,Outlet Node,2,BREAK_ROOM_4_Z19_TERMINALINLET,BREAK_ROOM_4_Z19_AIRLOOP
 Supply Air Path,20,MECHANICAL_4_Z20,MECHANICAL_4_Z20_AIRLOOP
   #Components on Supply Air Path,1
   Supply Air Path Component,1,AIRLOOPHVAC:ZONESPLITTER,MECHANICAL_4_Z20_SUPPLYSPLITTER,MECHANICAL_4_Z20_AIRLOOP
     #Outlet Nodes on Supply Air Path Component,1
     Supply Air Path Component Nodes,1,AIRLOOPHVAC:ZONESPLITTER,MECHANICAL_4_Z20_SUPPLYSPLITTER,MECHANICAL_4_Z20_ZONEEQUIPMENTINLET,MECHANICAL_4_Z20_TERMINALINLET,MECHANICAL_4_Z20_AIRLOOP
! <#Nodes on Supply Air Path>,<Number of Nodes>
! <Supply Air Path Node>,<Node Type>,<Node Count>,<Node Name>,<AirLoopHVAC Name>
#Nodes on Supply Air Path,2
   Supply Air Path Node,Inlet Node,1,MECHANICAL_4_Z20_ZONEEQUIPMENTINLET,MECHANICAL_4_Z20_AIRLOOP
   Supply Air Path Node,Outlet Node,2,MECHANICAL_4_Z20_TERMINALINLET,MECHANICAL_4_Z20_AIRLOOP
 Supply Air Path,21,OFFICE_OPEN_4_Z21,OFFICE_OPEN_4_Z21_AIRLOOP
   #Components on Supply Air Path,1
   Supply Air Path Component,1,AIRLOOPHVAC:ZONESPLITTER,OFFICE_OPEN_4_Z21_SUPPLYSPLITTER,OFFICE_OPEN_4_Z21_AIRLOOP
     #Outlet Nodes on Supply Air Path Component,1
     Supply Air Path Component Nodes,1,AIRLOOPHVAC:ZONESPLITTER,OFFICE_OPEN_4_Z21_SUPPLYSPLITTER,OFFICE_OPEN_4_Z21_ZONEEQUIPMENTINLET,OFFICE_OPEN_4_Z21_TERMINALINLET,OFFICE_OPEN_4_Z21_AIRLOOP
! <#Nodes on Supply Air Path>,<Number of Nodes>
! <Supply Air Path Node>,<Node Type>,<Node Count>,<Node Name>,<AirLoopHVAC Name>
#Nodes on Supply Air Path,2
   Supply Air Path Node,Inlet Node,1,OFFICE_OPEN_4_Z21_ZONEEQUIPMENTINLET,OFFICE_OPEN_4_Z21_AIRLOOP
   Supply Air Path Node,Outlet Node,2,OFFICE_OPEN_4_Z21_TERMINALINLET,OFFICE_OPEN_4_Z21_AIRLOOP
 Supply Air Path,22,CONFERENCE_5_Z22,CONFERENCE_5_Z22_AIRLOOP
   #Components on Supply Air Path,1
   Supply Air Path Component,1,AIRLOOPHVAC:ZONESPLITTER,CONFERENCE_5_Z22_SUPPLYSPLITTER,CONFERENCE_5_Z22_AIRLOOP
     #Outlet Nodes on Supply Air Path Component,1
     Supply Air Path Component Nodes,1,AIRLOOPHVAC:ZONESPLITTER,CONFERENCE_5_Z22_SUPPLYSPLITTER,CONFERENCE_5_Z22_ZONEEQUIPMENTINLET,CONFERENCE_5_Z22_TERMINALINLET,CONFERENCE_5_Z22_AIRLOOP
! <#Nodes on Supply Air Path>,<Number of Nodes>
! <Supply Air Path Node>,<Node Type>,<Node Count>,<Node Name>,<AirLoopHVAC Name>
#Nodes on Supply Air Path,2
   Supply Air Path Node,Inlet Node,1,CONFERENCE_5_Z22_ZONEEQUIPMENTINLET,CONFERENCE_5_Z22_AIRLOOP
   Supply Air Path Node,Outlet Node,2,CONFERENCE_5_Z22_TERMINALINLET,CONFERENCE_5_Z22_AIRLOOP
 Supply Air Path,23,BREAK_ROOM_5_Z23,BREAK_ROOM_5_Z23_AIRLOOP
   #Components on Supply Air Path,1
   Supply Air Path Component,1,AIRLOOPHVAC:ZONESPLITTER,BREAK_ROOM_5_Z23_SUPPLYSPLITTER,BREAK_ROOM_5_Z23_AIRLOOP
     #Outlet Nodes on Supply Air Path Component,1
     Supply Air Path Component Nodes,1,AIRLOOPHVAC:ZONESPLITTER,BREAK_ROOM_5_Z23_SUPPLYSPLITTER,BREAK_ROOM_5_Z23_ZONEEQUIPMENTINLET,BREAK_ROOM_5_Z23_TERMINALINLET,BREAK_ROOM_5_Z23_AIRLOOP
! <#Nodes on Supply Air Path>,<Number of Nodes>
! <Supply Air Path Node>,<Node Type>,<Node Count>,<Node Name>,<AirLoopHVAC Name>
#Nodes on Supply Air Path,2
   Supply Air Path Node,Inlet Node,1,BREAK_ROOM_5_Z23_ZONEEQUIPMENTINLET,BREAK_ROOM_5_Z23_AIRLOOP
   Supply Air Path Node,Outlet Node,2,BREAK_ROOM_5_Z23_TERMINALINLET,BREAK_ROOM_5_Z23_AIRLOOP
 Supply Air Path,24,MECHANICAL_5_Z24,MECHANICAL_5_Z24_AIRLOOP
   #Components on Supply Air Path,1
   Supply Air Path Component,1,AIRLOOPHVAC:ZONESPLITTER,MECHANICAL_5_Z24_SUPPLYSPLITTER,MECHANICAL_5_Z24_AIRLOOP
     #Outlet Nodes on Supply Air Path Component,1
     Supply Air Path Component Nodes,1,AIRLOOPHVAC:ZONESPLITTER,MECHANICAL_5_Z24_SUPPLYSPLITTER,MECHANICAL_5_Z24_ZONEEQUIPMENTINLET,MECHANICAL_5_Z24_TERMINALINLET,MECHANICAL_5_Z24_AIRLOOP
! <#Nodes on Supply Air Path>,<Number of Nodes>
! <Supply Air Path Node>,<Node Type>,<Node Count>,<Node Name>,<AirLoopHVAC Name>
#Nodes on Supply Air Path,2
   Supply Air Path Node,Inlet Node,1,MECHANICAL_5_Z24_ZONEEQUIPMENTINLET,MECHANICAL_5_Z24_AIRLOOP
   Supply Air Path Node,Outlet Node,2,MECHANICAL_5_Z24_TERMINALINLET,MECHANICAL_5_Z24_AIRLOOP
 Supply Air Path,25,OFFICE_PRIVATE_5_Z25,OFFICE_PRIVATE_5_Z25_AIRLOOP
   #Components on Supply Air Path,1
   Supply Air Path Component,1,AIRLOOPHVAC:ZONESPLITTER,OFFICE_PRIVATE_5_Z25_SUPPLYSPLITTER,OFFICE_PRIVATE_5_Z25_AIRLOOP
     #Outlet Nodes on Supply Air Path Component,1
     Supply Air Path Component Nodes,1,AIRLOOPHVAC:ZONESPLITTER,OFFICE_PRIVATE_5_Z25_SUPPLYSPLITTER,OFFICE_PRIVATE_5_Z25_ZONEEQUIPMENTINLET,OFFICE_PRIVATE_5_Z25_TERMINALINLET,OFFICE_PRIVATE_5_Z25_AIRLOOP
! <#Nodes on Supply Air Path>,<Number of Nodes>
! <Supply Air Path Node>,<Node Type>,<Node Count>,<Node Name>,<AirLoopHVAC Name>
#Nodes on Supply Air Path,2
   Supply Air Path Node,Inlet Node,1,OFFICE_PRIVATE_5_Z25_ZONEEQUIPMENTINLET,OFFICE_PRIVATE_5_Z25_AIRLOOP
   Supply Air Path Node,Outlet Node,2,OFFICE_PRIVATE_5_Z25_TERMINALINLET,OFFICE_PRIVATE_5_Z25_AIRLOOP
 Supply Air Path,26,OFFICE_PRIVATE_6_Z26,OFFICE_PRIVATE_6_Z26_AIRLOOP
   #Components on Supply Air Path,1
   Supply Air Path Component,1,AIRLOOPHVAC:ZONESPLITTER,OFFICE_PRIVATE_6_Z26_SUPPLYSPLITTER,OFFICE_PRIVATE_6_Z26_AIRLOOP
     #Outlet Nodes on Supply Air Path Component,1
     Supply Air Path Component Nodes,1,AIRLOOPHVAC:ZONESPLITTER,OFFICE_PRIVATE_6_Z26_SUPPLYSPLITTER,OFFICE_PRIVATE_6_Z26_ZONEEQUIPMENTINLET,OFFICE_PRIVATE_6_Z26_TERMINALINLET,OFFICE_PRIVATE_6_Z26_AIRLOOP
! <#Nodes on Supply Air Path>,<Number of Nodes>
! <Supply Air Path Node>,<Node Type>,<Node Count>,<Node Name>,<AirLoopHVAC Name>
#Nodes on Supply Air Path,2
   Supply Air Path Node,Inlet Node,1,OFFICE_PRIVATE_6_Z26_ZONEEQUIPMENTINLET,OFFICE_PRIVATE_6_Z26_AIRLOOP
   Supply Air Path Node,Outlet Node,2,OFFICE_PRIVATE_6_Z26_TERMINALINLET,OFFICE_PRIVATE_6_Z26_AIRLOOP
 Supply Air Path,27,LOBBY_7_Z27,LOBBY_7_Z27_AIRLOOP
   #Components on Supply Air Path,1
   Supply Air Path Component,1,AIRLOOPHVAC:ZONESPLITTER,LOBBY_7_Z27_SUPPLYSPLITTER,LOBBY_7_Z27_AIRLOOP
     #Outlet Nodes on Supply Air Path Component,1
     Supply Air Path Component Nodes,1,AIRLOOPHVAC:ZONESPLITTER,LOBBY_7_Z27_SUPPLYSPLITTER,LOBBY_7_Z27_ZONEEQUIPMENTINLET,LOBBY_7_Z27_TERMINALINLET,LOBBY_7_Z27_AIRLOOP
! <#Nodes on Supply Air Path>,<Number of Nodes>
! <Supply Air Path Node>,<Node Type>,<Node Count>,<Node Name>,<AirLoopHVAC Name>
#Nodes on Supply Air Path,2
   Supply Air Path Node,Inlet Node,1,LOBBY_7_Z27_ZONEEQUIPMENTINLET,LOBBY_7_Z27_AIRLOOP
   Supply Air Path Node,Outlet Node,2,LOBBY_7_Z27_TERMINALINLET,LOBBY_7_Z27_AIRLOOP
 Supply Air Path,28,BREAK_ROOM_7_Z28,BREAK_ROOM_7_Z28_AIRLOOP
   #Components on Supply Air Path,1
   Supply Air Path Component,1,AIRLOOPHVAC:ZONESPLITTER,BREAK_ROOM_7_Z28_SUPPLYSPLITTER,BREAK_ROOM_7_Z28_AIRLOOP
     #Outlet Nodes on Supply Air Path Component,1
     Supply Air Path Component Nodes,1,AIRLOOPHVAC:ZONESPLITTER,BREAK_ROOM_7_Z28_SUPPLYSPLITTER,BREAK_ROOM_7_Z28_ZONEEQUIPMENTINLET,BREAK_ROOM_7_Z28_TERMINALINLET,BREAK_ROOM_7_Z28_AIRLOOP
! <#Nodes on Supply Air Path>,<Number of Nodes>
! <Supply Air Path Node>,<Node Type>,<Node Count>,<Node Name>,<AirLoopHVAC Name>
#Nodes on Supply Air Path,2
   Supply Air Path Node,Inlet Node,1,BREAK_ROOM_7_Z28_ZONEEQUIPMENTINLET,BREAK_ROOM_7_Z28_AIRLOOP
   Supply Air Path Node,Outlet Node,2,BREAK_ROOM_7_Z28_TERMINALINLET,BREAK_ROOM_7_Z28_AIRLOOP
 Supply Air Path,29,MECHANICAL_7_Z29,MECHANICAL_7_Z29_AIRLOOP
   #Components on Supply Air Path,1
   Supply Air Path Component,1,AIRLOOPHVAC:ZONESPLITTER,MECHANICAL_7_Z29_SUPPLYSPLITTER,MECHANICAL_7_Z29_AIRLOOP
     #Outlet Nodes on Supply Air Path Component,1
     Supply Air Path Component Nodes,1,AIRLOOPHVAC:ZONESPLITTER,MECHANICAL_7_Z29_SUPPLYSPLITTER,MECHANICAL_7_Z29_ZONEEQUIPMENTINLET,MECHANICAL_7_Z29_TERMINALINLET,MECHANICAL_7_Z29_AIRLOOP
! <#Nodes on Supply Air Path>,<Number of Nodes>
! <Supply Air Path Node>,<Node Type>,<Node Count>,<Node Name>,<AirLoopHVAC Name>
#Nodes on Supply Air Path,2
   Supply Air Path Node,Inlet Node,1,MECHANICAL_7_Z29_ZONEEQUIPMENTINLET,MECHANICAL_7_Z29_AIRLOOP
   Supply Air Path Node,Outlet Node,2,MECHANICAL_7_Z29_TERMINALINLET,MECHANICAL_7_Z29_AIRLOOP
 Supply Air Path,30,OFFICE_OPEN_7_Z30,OFFICE_OPEN_7_Z30_AIRLOOP
   #Components on Supply Air Path,1
   Supply Air Path Component,1,AIRLOOPHVAC:ZONESPLITTER,OFFICE_OPEN_7_Z30_SUPPLYSPLITTER,OFFICE_OPEN_7_Z30_AIRLOOP
     #Outlet Nodes on Supply Air Path Component,1
     Supply Air Path Component Nodes,1,AIRLOOPHVAC:ZONESPLITTER,OFFICE_OPEN_7_Z30_SUPPLYSPLITTER,OFFICE_OPEN_7_Z30_ZONEEQUIPMENTINLET,OFFICE_OPEN_7_Z30_TERMINALINLET,OFFICE_OPEN_7_Z30_AIRLOOP
! <#Nodes on Supply Air Path>,<Number of Nodes>
! <Supply Air Path Node>,<Node Type>,<Node Count>,<Node Name>,<AirLoopHVAC Name>
#Nodes on Supply Air Path,2
   Supply Air Path Node,Inlet Node,1,OFFICE_OPEN_7_Z30_ZONEEQUIPMENTINLET,OFFICE_OPEN_7_Z30_AIRLOOP
   Supply Air Path Node,Outlet Node,2,OFFICE_OPEN_7_Z30_TERMINALINLET,OFFICE_OPEN_7_Z30_AIRLOOP
 Supply Air Path,31,OFFICE_PRIVATE_7_Z31,OFFICE_PRIVATE_7_Z31_AIRLOOP
   #Components on Supply Air Path,1
   Supply Air Path Component,1,AIRLOOPHVAC:ZONESPLITTER,OFFICE_PRIVATE_7_Z31_SUPPLYSPLITTER,OFFICE_PRIVATE_7_Z31_AIRLOOP
     #Outlet Nodes on Supply Air Path Component,1
     Supply Air Path Component Nodes,1,AIRLOOPHVAC:ZONESPLITTER,OFFICE_PRIVATE_7_Z31_SUPPLYSPLITTER,OFFICE_PRIVATE_7_Z31_ZONEEQUIPMENTINLET,OFFICE_PRIVATE_7_Z31_TERMINALINLET,OFFICE_PRIVATE_7_Z31_AIRLOOP
! <#Nodes on Supply Air Path>,<Number of Nodes>
! <Supply Air Path Node>,<Node Type>,<Node Count>,<Node Name>,<AirLoopHVAC Name>
#Nodes on Supply Air Path,2
   Supply Air Path Node,Inlet Node,1,OFFICE_PRIVATE_7_Z31_ZONEEQUIPMENTINLET,OFFICE_PRIVATE_7_Z31_AIRLOOP
   Supply Air Path Node,Outlet Node,2,OFFICE_PRIVATE_7_Z31_TERMINALINLET,OFFICE_PRIVATE_7_Z31_AIRLOOP
 Supply Air Path,32,STORAGE_7_Z32,STORAGE_7_Z32_AIRLOOP
   #Components on Supply Air Path,1
   Supply Air Path Component,1,AIRLOOPHVAC:ZONESPLITTER,STORAGE_7_Z32_SUPPLYSPLITTER,STORAGE_7_Z32_AIRLOOP
     #Outlet Nodes on Supply Air Path Component,1
     Supply Air Path Component Nodes,1,AIRLOOPHVAC:ZONESPLITTER,STORAGE_7_Z32_SUPPLYSPLITTER,STORAGE_7_Z32_ZONEEQUIPMENTINLET,STORAGE_7_Z32_TERMINALINLET,STORAGE_7_Z32_AIRLOOP
! <#Nodes on Supply Air Path>,<Number of Nodes>
! <Supply Air Path Node>,<Node Type>,<Node Count>,<Node Name>,<AirLoopHVAC Name>
#Nodes on Supply Air Path,2
   Supply Air Path Node,Inlet Node,1,STORAGE_7_Z32_ZONEEQUIPMENTINLET,STORAGE_7_Z32_AIRLOOP
   Supply Air Path Node,Outlet Node,2,STORAGE_7_Z32_TERMINALINLET,STORAGE_7_Z32_AIRLOOP
 Supply Air Path,33,CONFERENCE_8_Z33,CONFERENCE_8_Z33_AIRLOOP
   #Components on Supply Air Path,1
   Supply Air Path Component,1,AIRLOOPHVAC:ZONESPLITTER,CONFERENCE_8_Z33_SUPPLYSPLITTER,CONFERENCE_8_Z33_AIRLOOP
     #Outlet Nodes on Supply Air Path Component,1
     Supply Air Path Component Nodes,1,AIRLOOPHVAC:ZONESPLITTER,CONFERENCE_8_Z33_SUPPLYSPLITTER,CONFERENCE_8_Z33_ZONEEQUIPMENTINLET,CONFERENCE_8_Z33_TERMINALINLET,CONFERENCE_8_Z33_AIRLOOP
! <#Nodes on Supply Air Path>,<Number of Nodes>
! <Supply Air Path Node>,<Node Type>,<Node Count>,<Node Name>,<AirLoopHVAC Name>
#Nodes on Supply Air Path,2
   Supply Air Path Node,Inlet Node,1,CONFERENCE_8_Z33_ZONEEQUIPMENTINLET,CONFERENCE_8_Z33_AIRLOOP
   Supply Air Path Node,Outlet Node,2,CONFERENCE_8_Z33_TERMINALINLET,CONFERENCE_8_Z33_AIRLOOP
 Supply Air Path,34,BREAK_ROOM_8_Z34,BREAK_ROOM_8_Z34_AIRLOOP
   #Components on Supply Air Path,1
   Supply Air Path Component,1,AIRLOOPHVAC:ZONESPLITTER,BREAK_ROOM_8_Z34_SUPPLYSPLITTER,BREAK_ROOM_8_Z34_AIRLOOP
     #Outlet Nodes on Supply Air Path Component,1
     Supply Air Path Component Nodes,1,AIRLOOPHVAC:ZONESPLITTER,BREAK_ROOM_8_Z34_SUPPLYSPLITTER,BREAK_ROOM_8_Z34_ZONEEQUIPMENTINLET,BREAK_ROOM_8_Z34_TERMINALINLET,BREAK_ROOM_8_Z34_AIRLOOP
! <#Nodes on Supply Air Path>,<Number of Nodes>
! <Supply Air Path Node>,<Node Type>,<Node Count>,<Node Name>,<AirLoopHVAC Name>
#Nodes on Supply Air Path,2
   Supply Air Path Node,Inlet Node,1,BREAK_ROOM_8_Z34_ZONEEQUIPMENTINLET,BREAK_ROOM_8_Z34_AIRLOOP
   Supply Air Path Node,Outlet Node,2,BREAK_ROOM_8_Z34_TERMINALINLET,BREAK_ROOM_8_Z34_AIRLOOP
 Supply Air Path,35,MECHANICAL_8_Z35,MECHANICAL_8_Z35_AIRLOOP
   #Components on Supply Air Path,1
   Supply Air Path Component,1,AIRLOOPHVAC:ZONESPLITTER,MECHANICAL_8_Z35_SUPPLYSPLITTER,MECHANICAL_8_Z35_AIRLOOP
     #Outlet Nodes on Supply Air Path Component,1
     Supply Air Path Component Nodes,1,AIRLOOPHVAC:ZONESPLITTER,MECHANICAL_8_Z35_SUPPLYSPLITTER,MECHANICAL_8_Z35_ZONEEQUIPMENTINLET,MECHANICAL_8_Z35_TERMINALINLET,MECHANICAL_8_Z35_AIRLOOP
! <#Nodes on Supply Air Path>,<Number of Nodes>
! <Supply Air Path Node>,<Node Type>,<Node Count>,<Node Name>,<AirLoopHVAC Name>
#Nodes on Supply Air Path,2
   Supply Air Path Node,Inlet Node,1,MECHANICAL_8_Z35_ZONEEQUIPMENTINLET,MECHANICAL_8_Z35_AIRLOOP
   Supply Air Path Node,Outlet Node,2,MECHANICAL_8_Z35_TERMINALINLET,MECHANICAL_8_Z35_AIRLOOP
 Supply Air Path,36,OFFICE_OPEN_8_Z36,OFFICE_OPEN_8_Z36_AIRLOOP
   #Components on Supply Air Path,1
   Supply Air Path Component,1,AIRLOOPHVAC:ZONESPLITTER,OFFICE_OPEN_8_Z36_SUPPLYSPLITTER,OFFICE_OPEN_8_Z36_AIRLOOP
     #Outlet Nodes on Supply Air Path Component,1
     Supply Air Path Component Nodes,1,AIRLOOPHVAC:ZONESPLITTER,OFFICE_OPEN_8_Z36_SUPPLYSPLITTER,OFFICE_OPEN_8_Z36_ZONEEQUIPMENTINLET,OFFICE_OPEN_8_Z36_TERMINALINLET,OFFICE_OPEN_8_Z36_AIRLOOP
! <#Nodes on Supply Air Path>,<Number of Nodes>
! <Supply Air Path Node>,<Node Type>,<Node Count>,<Node Name>,<AirLoopHVAC Name>
#Nodes on Supply Air Path,2
   Supply Air Path Node,Inlet Node,1,OFFICE_OPEN_8_Z36_ZONEEQUIPMENTINLET,OFFICE_OPEN_8_Z36_AIRLOOP
   Supply Air Path Node,Outlet Node,2,OFFICE_OPEN_8_Z36_TERMINALINLET,OFFICE_OPEN_8_Z36_AIRLOOP
 Supply Air Path,37,STORAGE_8_Z37,STORAGE_8_Z37_AIRLOOP
   #Components on Supply Air Path,1
   Supply Air Path Component,1,AIRLOOPHVAC:ZONESPLITTER,STORAGE_8_Z37_SUPPLYSPLITTER,STORAGE_8_Z37_AIRLOOP
     #Outlet Nodes on Supply Air Path Component,1
     Supply Air Path Component Nodes,1,AIRLOOPHVAC:ZONESPLITTER,STORAGE_8_Z37_SUPPLYSPLITTER,STORAGE_8_Z37_ZONEEQUIPMENTINLET,STORAGE_8_Z37_TERMINALINLET,STORAGE_8_Z37_AIRLOOP
! <#Nodes on Supply Air Path>,<Number of Nodes>
! <Supply Air Path Node>,<Node Type>,<Node Count>,<Node Name>,<AirLoopHVAC Name>
#Nodes on Supply Air Path,2
   Supply Air Path Node,Inlet Node,1,STORAGE_8_Z37_ZONEEQUIPMENTINLET,STORAGE_8_Z37_AIRLOOP
   Supply Air Path Node,Outlet Node,2,STORAGE_8_Z37_TERMINALINLET,STORAGE_8_Z37_AIRLOOP
 Supply Air Path,38,CONFERENCE_9_Z38,CONFERENCE_9_Z38_AIRLOOP
   #Components on Supply Air Path,1
   Supply Air Path Component,1,AIRLOOPHVAC:ZONESPLITTER,CONFERENCE_9_Z38_SUPPLYSPLITTER,CONFERENCE_9_Z38_AIRLOOP
     #Outlet Nodes on Supply Air Path Component,1
     Supply Air Path Component Nodes,1,AIRLOOPHVAC:ZONESPLITTER,CONFERENCE_9_Z38_SUPPLYSPLITTER,CONFERENCE_9_Z38_ZONEEQUIPMENTINLET,CONFERENCE_9_Z38_TERMINALINLET,CONFERENCE_9_Z38_AIRLOOP
! <#Nodes on Supply Air Path>,<Number of Nodes>
! <Supply Air Path Node>,<Node Type>,<Node Count>,<Node Name>,<AirLoopHVAC Name>
#Nodes on Supply Air Path,2
   Supply Air Path Node,Inlet Node,1,CONFERENCE_9_Z38_ZONEEQUIPMENTINLET,CONFERENCE_9_Z38_AIRLOOP
   Supply Air Path Node,Outlet Node,2,CONFERENCE_9_Z38_TERMINALINLET,CONFERENCE_9_Z38_AIRLOOP
 Supply Air Path,39,BREAK_ROOM_9_Z39,BREAK_ROOM_9_Z39_AIRLOOP
   #Components on Supply Air Path,1
   Supply Air Path Component,1,AIRLOOPHVAC:ZONESPLITTER,BREAK_ROOM_9_Z39_SUPPLYSPLITTER,BREAK_ROOM_9_Z39_AIRLOOP
     #Outlet Nodes on Supply Air Path Component,1
     Supply Air Path Component Nodes,1,AIRLOOPHVAC:ZONESPLITTER,BREAK_ROOM_9_Z39_SUPPLYSPLITTER,BREAK_ROOM_9_Z39_ZONEEQUIPMENTINLET,BREAK_ROOM_9_Z39_TERMINALINLET,BREAK_ROOM_9_Z39_AIRLOOP
! <#Nodes on Supply Air Path>,<Number of Nodes>
! <Supply Air Path Node>,<Node Type>,<Node Count>,<Node Name>,<AirLoopHVAC Name>
#Nodes on Supply Air Path,2
   Supply Air Path Node,Inlet Node,1,BREAK_ROOM_9_Z39_ZONEEQUIPMENTINLET,BREAK_ROOM_9_Z39_AIRLOOP
   Supply Air Path Node,Outlet Node,2,BREAK_ROOM_9_Z39_TERMINALINLET,BREAK_ROOM_9_Z39_AIRLOOP
 Supply Air Path,40,MECHANICAL_9_Z40,MECHANICAL_9_Z40_AIRLOOP
   #Components on Supply Air Path,1
   Supply Air Path Component,1,AIRLOOPHVAC:ZONESPLITTER,MECHANICAL_9_Z40_SUPPLYSPLITTER,MECHANICAL_9_Z40_AIRLOOP
     #Outlet Nodes on Supply Air Path Component,1
     Supply Air Path Component Nodes,1,AIRLOOPHVAC:ZONESPLITTER,MECHANICAL_9_Z40_SUPPLYSPLITTER,MECHANICAL_9_Z40_ZONEEQUIPMENTINLET,MECHANICAL_9_Z40_TERMINALINLET,MECHANICAL_9_Z40_AIRLOOP
! <#Nodes on Supply Air Path>,<Number of Nodes>
! <Supply Air Path Node>,<Node Type>,<Node Count>,<Node Name>,<AirLoopHVAC Name>
#Nodes on Supply Air Path,2
   Supply Air Path Node,Inlet Node,1,MECHANICAL_9_Z40_ZONEEQUIPMENTINLET,MECHANICAL_9_Z40_AIRLOOP
   Supply Air Path Node,Outlet Node,2,MECHANICAL_9_Z40_TERMINALINLET,MECHANICAL_9_Z40_AIRLOOP
 Supply Air Path,41,OFFICE_OPEN_9_Z41,OFFICE_OPEN_9_Z41_AIRLOOP
   #Components on Supply Air Path,1
   Supply Air Path Component,1,AIRLOOPHVAC:ZONESPLITTER,OFFICE_OPEN_9_Z41_SUPPLYSPLITTER,OFFICE_OPEN_9_Z41_AIRLOOP
     #Outlet Nodes on Supply Air Path Component,1
     Supply Air Path Component Nodes,1,AIRLOOPHVAC:ZONESPLITTER,OFFICE_OPEN_9_Z41_SUPPLYSPLITTER,OFFICE_OPEN_9_Z41_ZONEEQUIPMENTINLET,OFFICE_OPEN_9_Z41_TERMINALINLET,OFFICE_OPEN_9_Z41_AIRLOOP
! <#Nodes on Supply Air Path>,<Number of Nodes>
! <Supply Air Path Node>,<Node Type>,<Node Count>,<Node Name>,<AirLoopHVAC Name>
#Nodes on Supply Air Path,2
   Supply Air Path Node,Inlet Node,1,OFFICE_OPEN_9_Z41_ZONEEQUIPMENTINLET,OFFICE_OPEN_9_Z41_AIRLOOP
   Supply Air Path Node,Outlet Node,2,OFFICE_OPEN_9_Z41_TERMINALINLET,OFFICE_OPEN_9_Z41_AIRLOOP
 Supply Air Path,42,OFFICE_PRIVATE_9_Z42,OFFICE_PRIVATE_9_Z42_AIRLOOP
   #Components on Supply Air Path,1
   Supply Air Path Component,1,AIRLOOPHVAC:ZONESPLITTER,OFFICE_PRIVATE_9_Z42_SUPPLYSPLITTER,OFFICE_PRIVATE_9_Z42_AIRLOOP
     #Outlet Nodes on Supply Air Path Component,1
     Supply Air Path Component Nodes,1,AIRLOOPHVAC:ZONESPLITTER,OFFICE_PRIVATE_9_Z42_SUPPLYSPLITTER,OFFICE_PRIVATE_9_Z42_ZONEEQUIPMENTINLET,OFFICE_PRIVATE_9_Z42_TERMINALINLET,OFFICE_PRIVATE_9_Z42_AIRLOOP
! <#Nodes on Supply Air Path>,<Number of Nodes>
! <Supply Air Path Node>,<Node Type>,<Node Count>,<Node Name>,<AirLoopHVAC Name>
#Nodes on Supply Air Path,2
   Supply Air Path Node,Inlet Node,1,OFFICE_PRIVATE_9_Z42_ZONEEQUIPMENTINLET,OFFICE_PRIVATE_9_Z42_AIRLOOP
   Supply Air Path Node,Outlet Node,2,OFFICE_PRIVATE_9_Z42_TERMINALINLET,OFFICE_PRIVATE_9_Z42_AIRLOOP
! ===============================================================
! <#Return Air Paths>,<Number of Return Air Paths>
 #Return Air Paths,42
! <Return Air Path>,<Return Air Path Count>,<Return Air Path Name>,<AirLoopHVAC Name>
! <#Components on Return Air Path>,<Number of Components>
! <Return Air Path Component>,<Component Count>,<Component Type>,<Component Name>,<AirLoopHVAC Name>
! <#Inlet Nodes on Return Air Path Component>,<Number of Nodes>
! <Return Air Path Component Nodes>,<Node Count>,<Component Type>,<Component Name>,<Inlet Node Name>,<Outlet Node Name>,<AirLoopHVAC Name>
 Return Air Path,1,CONFERENCE_0_Z1_RETURNAIRPATH,CONFERENCE_0_Z1_AIRLOOP
   #Components on Return Air Path,1
   Return Air Path Component,1,AIRLOOPHVAC:ZONEMIXER,CONFERENCE_0_Z1_RETURNAIRMIXER,CONFERENCE_0_Z1_AIRLOOP
     #Inlet Nodes on Return Air Path Component,1
     Return Air Path Component Nodes,1,AIRLOOPHVAC:ZONEMIXER,CONFERENCE_0_Z1_RETURNAIRMIXER,CONFERENCE_0_Z1_RETURNAIR,CONFERENCE_0_Z1_ZONEEQUIPMENTOUTLETNODE,CONFERENCE_0_Z1_AIRLOOP
! <#Nodes on Return Air Path>,<Number of Nodes>
! <Return Air Path Node>,<Node Type>,<Node Count>,<Node Name>,<AirLoopHVAC Name>
   #Nodes on Return Air Path,2
   Return Air Path Node,Outlet Node,1,CONFERENCE_0_Z1_ZONEEQUIPMENTOUTLETNODE,CONFERENCE_0_Z1_AIRLOOP
   Return Air Path Node,Inlet Node,2,CONFERENCE_0_Z1_RETURNAIR,CONFERENCE_0_Z1_AIRLOOP
 Return Air Path,2,MECHANICAL_0_Z2_RETURNAIRPATH,MECHANICAL_0_Z2_AIRLOOP
   #Components on Return Air Path,1
   Return Air Path Component,1,AIRLOOPHVAC:ZONEMIXER,MECHANICAL_0_Z2_RETURNAIRMIXER,MECHANICAL_0_Z2_AIRLOOP
     #Inlet Nodes on Return Air Path Component,1
     Return Air Path Component Nodes,1,AIRLOOPHVAC:ZONEMIXER,MECHANICAL_0_Z2_RETURNAIRMIXER,MECHANICAL_0_Z2_RETURNAIR,MECHANICAL_0_Z2_ZONEEQUIPMENTOUTLETNODE,MECHANICAL_0_Z2_AIRLOOP
! <#Nodes on Return Air Path>,<Number of Nodes>
! <Return Air Path Node>,<Node Type>,<Node Count>,<Node Name>,<AirLoopHVAC Name>
   #Nodes on Return Air Path,2
   Return Air Path Node,Outlet Node,1,MECHANICAL_0_Z2_ZONEEQUIPMENTOUTLETNODE,MECHANICAL_0_Z2_AIRLOOP
   Return Air Path Node,Inlet Node,2,MECHANICAL_0_Z2_RETURNAIR,MECHANICAL_0_Z2_AIRLOOP
 Return Air Path,3,OFFICE_OPEN_0_Z3_RETURNAIRPATH,OFFICE_OPEN_0_Z3_AIRLOOP
   #Components on Return Air Path,1
   Return Air Path Component,1,AIRLOOPHVAC:ZONEMIXER,OFFICE_OPEN_0_Z3_RETURNAIRMIXER,OFFICE_OPEN_0_Z3_AIRLOOP
     #Inlet Nodes on Return Air Path Component,1
     Return Air Path Component Nodes,1,AIRLOOPHVAC:ZONEMIXER,OFFICE_OPEN_0_Z3_RETURNAIRMIXER,OFFICE_OPEN_0_Z3_RETURNAIR,OFFICE_OPEN_0_Z3_ZONEEQUIPMENTOUTLETNODE,OFFICE_OPEN_0_Z3_AIRLOOP
! <#Nodes on Return Air Path>,<Number of Nodes>
! <Return Air Path Node>,<Node Type>,<Node Count>,<Node Name>,<AirLoopHVAC Name>
   #Nodes on Return Air Path,2
   Return Air Path Node,Outlet Node,1,OFFICE_OPEN_0_Z3_ZONEEQUIPMENTOUTLETNODE,OFFICE_OPEN_0_Z3_AIRLOOP
   Return Air Path Node,Inlet Node,2,OFFICE_OPEN_0_Z3_RETURNAIR,OFFICE_OPEN_0_Z3_AIRLOOP
 Return Air Path,4,STORAGE_0_Z4_RETURNAIRPATH,STORAGE_0_Z4_AIRLOOP
   #Components on Return Air Path,1
   Return Air Path Component,1,AIRLOOPHVAC:ZONEMIXER,STORAGE_0_Z4_RETURNAIRMIXER,STORAGE_0_Z4_AIRLOOP
     #Inlet Nodes on Return Air Path Component,1
     Return Air Path Component Nodes,1,AIRLOOPHVAC:ZONEMIXER,STORAGE_0_Z4_RETURNAIRMIXER,STORAGE_0_Z4_RETURNAIR,STORAGE_0_Z4_ZONEEQUIPMENTOUTLETNODE,STORAGE_0_Z4_AIRLOOP
! <#Nodes on Return Air Path>,<Number of Nodes>
! <Return Air Path Node>,<Node Type>,<Node Count>,<Node Name>,<AirLoopHVAC Name>
   #Nodes on Return Air Path,2
   Return Air Path Node,Outlet Node,1,STORAGE_0_Z4_ZONEEQUIPMENTOUTLETNODE,STORAGE_0_Z4_AIRLOOP
   Return Air Path Node,Inlet Node,2,STORAGE_0_Z4_RETURNAIR,STORAGE_0_Z4_AIRLOOP
 Return Air Path,5,LOBBY_1_Z5_RETURNAIRPATH,LOBBY_1_Z5_AIRLOOP
   #Components on Return Air Path,1
   Return Air Path Component,1,AIRLOOPHVAC:ZONEMIXER,LOBBY_1_Z5_RETURNAIRMIXER,LOBBY_1_Z5_AIRLOOP
     #Inlet Nodes on Return Air Path Component,1
     Return Air Path Component Nodes,1,AIRLOOPHVAC:ZONEMIXER,LOBBY_1_Z5_RETURNAIRMIXER,LOBBY_1_Z5_RETURNAIR,LOBBY_1_Z5_ZONEEQUIPMENTOUTLETNODE,LOBBY_1_Z5_AIRLOOP
! <#Nodes on Return Air Path>,<Number of Nodes>
! <Return Air Path Node>,<Node Type>,<Node Count>,<Node Name>,<AirLoopHVAC Name>
   #Nodes on Return Air Path,2
   Return Air Path Node,Outlet Node,1,LOBBY_1_Z5_ZONEEQUIPMENTOUTLETNODE,LOBBY_1_Z5_AIRLOOP
   Return Air Path Node,Inlet Node,2,LOBBY_1_Z5_RETURNAIR,LOBBY_1_Z5_AIRLOOP
 Return Air Path,6,CONFERENCE_1_Z6_RETURNAIRPATH,CONFERENCE_1_Z6_AIRLOOP
   #Components on Return Air Path,1
   Return Air Path Component,1,AIRLOOPHVAC:ZONEMIXER,CONFERENCE_1_Z6_RETURNAIRMIXER,CONFERENCE_1_Z6_AIRLOOP
     #Inlet Nodes on Return Air Path Component,1
     Return Air Path Component Nodes,1,AIRLOOPHVAC:ZONEMIXER,CONFERENCE_1_Z6_RETURNAIRMIXER,CONFERENCE_1_Z6_RETURNAIR,CONFERENCE_1_Z6_ZONEEQUIPMENTOUTLETNODE,CONFERENCE_1_Z6_AIRLOOP
! <#Nodes on Return Air Path>,<Number of Nodes>
! <Return Air Path Node>,<Node Type>,<Node Count>,<Node Name>,<AirLoopHVAC Name>
   #Nodes on Return Air Path,2
   Return Air Path Node,Outlet Node,1,CONFERENCE_1_Z6_ZONEEQUIPMENTOUTLETNODE,CONFERENCE_1_Z6_AIRLOOP
   Return Air Path Node,Inlet Node,2,CONFERENCE_1_Z6_RETURNAIR,CONFERENCE_1_Z6_AIRLOOP
 Return Air Path,7,BREAK_ROOM_1_Z7_RETURNAIRPATH,BREAK_ROOM_1_Z7_AIRLOOP
   #Components on Return Air Path,1
   Return Air Path Component,1,AIRLOOPHVAC:ZONEMIXER,BREAK_ROOM_1_Z7_RETURNAIRMIXER,BREAK_ROOM_1_Z7_AIRLOOP
     #Inlet Nodes on Return Air Path Component,1
     Return Air Path Component Nodes,1,AIRLOOPHVAC:ZONEMIXER,BREAK_ROOM_1_Z7_RETURNAIRMIXER,BREAK_ROOM_1_Z7_RETURNAIR,BREAK_ROOM_1_Z7_ZONEEQUIPMENTOUTLETNODE,BREAK_ROOM_1_Z7_AIRLOOP
! <#Nodes on Return Air Path>,<Number of Nodes>
! <Return Air Path Node>,<Node Type>,<Node Count>,<Node Name>,<AirLoopHVAC Name>
   #Nodes on Return Air Path,2
   Return Air Path Node,Outlet Node,1,BREAK_ROOM_1_Z7_ZONEEQUIPMENTOUTLETNODE,BREAK_ROOM_1_Z7_AIRLOOP
   Return Air Path Node,Inlet Node,2,BREAK_ROOM_1_Z7_RETURNAIR,BREAK_ROOM_1_Z7_AIRLOOP
 Return Air Path,8,OFFICE_PRIVATE_1_Z8_RETURNAIRPATH,OFFICE_PRIVATE_1_Z8_AIRLOOP
   #Components on Return Air Path,1
   Return Air Path Component,1,AIRLOOPHVAC:ZONEMIXER,OFFICE_PRIVATE_1_Z8_RETURNAIRMIXER,OFFICE_PRIVATE_1_Z8_AIRLOOP
     #Inlet Nodes on Return Air Path Component,1
     Return Air Path Component Nodes,1,AIRLOOPHVAC:ZONEMIXER,OFFICE_PRIVATE_1_Z8_RETURNAIRMIXER,OFFICE_PRIVATE_1_Z8_RETURNAIR,OFFICE_PRIVATE_1_Z8_ZONEEQUIPMENTOUTLETNODE,OFFICE_PRIVATE_1_Z8_AIRLOOP
! <#Nodes on Return Air Path>,<Number of Nodes>
! <Return Air Path Node>,<Node Type>,<Node Count>,<Node Name>,<AirLoopHVAC Name>
   #Nodes on Return Air Path,2
   Return Air Path Node,Outlet Node,1,OFFICE_PRIVATE_1_Z8_ZONEEQUIPMENTOUTLETNODE,OFFICE_PRIVATE_1_Z8_AIRLOOP
   Return Air Path Node,Inlet Node,2,OFFICE_PRIVATE_1_Z8_RETURNAIR,OFFICE_PRIVATE_1_Z8_AIRLOOP
 Return Air Path,9,CONFERENCE_2_Z9_RETURNAIRPATH,CONFERENCE_2_Z9_AIRLOOP
   #Components on Return Air Path,1
   Return Air Path Component,1,AIRLOOPHVAC:ZONEMIXER,CONFERENCE_2_Z9_RETURNAIRMIXER,CONFERENCE_2_Z9_AIRLOOP
     #Inlet Nodes on Return Air Path Component,1
     Return Air Path Component Nodes,1,AIRLOOPHVAC:ZONEMIXER,CONFERENCE_2_Z9_RETURNAIRMIXER,CONFERENCE_2_Z9_RETURNAIR,CONFERENCE_2_Z9_ZONEEQUIPMENTOUTLETNODE,CONFERENCE_2_Z9_AIRLOOP
! <#Nodes on Return Air Path>,<Number of Nodes>
! <Return Air Path Node>,<Node Type>,<Node Count>,<Node Name>,<AirLoopHVAC Name>
   #Nodes on Return Air Path,2
   Return Air Path Node,Outlet Node,1,CONFERENCE_2_Z9_ZONEEQUIPMENTOUTLETNODE,CONFERENCE_2_Z9_AIRLOOP
   Return Air Path Node,Inlet Node,2,CONFERENCE_2_Z9_RETURNAIR,CONFERENCE_2_Z9_AIRLOOP
 Return Air Path,10,BREAK_ROOM_2_Z10_RETURNAIRPATH,BREAK_ROOM_2_Z10_AIRLOOP
   #Components on Return Air Path,1
   Return Air Path Component,1,AIRLOOPHVAC:ZONEMIXER,BREAK_ROOM_2_Z10_RETURNAIRMIXER,BREAK_ROOM_2_Z10_AIRLOOP
     #Inlet Nodes on Return Air Path Component,1
     Return Air Path Component Nodes,1,AIRLOOPHVAC:ZONEMIXER,BREAK_ROOM_2_Z10_RETURNAIRMIXER,BREAK_ROOM_2_Z10_RETURNAIR,BREAK_ROOM_2_Z10_ZONEEQUIPMENTOUTLETNODE,BREAK_ROOM_2_Z10_AIRLOOP
! <#Nodes on Return Air Path>,<Number of Nodes>
! <Return Air Path Node>,<Node Type>,<Node Count>,<Node Name>,<AirLoopHVAC Name>
   #Nodes on Return Air Path,2
   Return Air Path Node,Outlet Node,1,BREAK_ROOM_2_Z10_ZONEEQUIPMENTOUTLETNODE,BREAK_ROOM_2_Z10_AIRLOOP
   Return Air Path Node,Inlet Node,2,BREAK_ROOM_2_Z10_RETURNAIR,BREAK_ROOM_2_Z10_AIRLOOP
 Return Air Path,11,MECHANICAL_2_Z11_RETURNAIRPATH,MECHANICAL_2_Z11_AIRLOOP
   #Components on Return Air Path,1
   Return Air Path Component,1,AIRLOOPHVAC:ZONEMIXER,MECHANICAL_2_Z11_RETURNAIRMIXER,MECHANICAL_2_Z11_AIRLOOP
     #Inlet Nodes on Return Air Path Component,1
     Return Air Path Component Nodes,1,AIRLOOPHVAC:ZONEMIXER,MECHANICAL_2_Z11_RETURNAIRMIXER,MECHANICAL_2_Z11_RETURNAIR,MECHANICAL_2_Z11_ZONEEQUIPMENTOUTLETNODE,MECHANICAL_2_Z11_AIRLOOP
! <#Nodes on Return Air Path>,<Number of Nodes>
! <Return Air Path Node>,<Node Type>,<Node Count>,<Node Name>,<AirLoopHVAC Name>
   #Nodes on Return Air Path,2
   Return Air Path Node,Outlet Node,1,MECHANICAL_2_Z11_ZONEEQUIPMENTOUTLETNODE,MECHANICAL_2_Z11_AIRLOOP
   Return Air Path Node,Inlet Node,2,MECHANICAL_2_Z11_RETURNAIR,MECHANICAL_2_Z11_AIRLOOP
 Return Air Path,12,OFFICE_OPEN_2_Z12_RETURNAIRPATH,OFFICE_OPEN_2_Z12_AIRLOOP
   #Components on Return Air Path,1
   Return Air Path Component,1,AIRLOOPHVAC:ZONEMIXER,OFFICE_OPEN_2_Z12_RETURNAIRMIXER,OFFICE_OPEN_2_Z12_AIRLOOP
     #Inlet Nodes on Return Air Path Component,1
     Return Air Path Component Nodes,1,AIRLOOPHVAC:ZONEMIXER,OFFICE_OPEN_2_Z12_RETURNAIRMIXER,OFFICE_OPEN_2_Z12_RETURNAIR,OFFICE_OPEN_2_Z12_ZONEEQUIPMENTOUTLETNODE,OFFICE_OPEN_2_Z12_AIRLOOP
! <#Nodes on Return Air Path>,<Number of Nodes>
! <Return Air Path Node>,<Node Type>,<Node Count>,<Node Name>,<AirLoopHVAC Name>
   #Nodes on Return Air Path,2
   Return Air Path Node,Outlet Node,1,OFFICE_OPEN_2_Z12_ZONEEQUIPMENTOUTLETNODE,OFFICE_OPEN_2_Z12_AIRLOOP
   Return Air Path Node,Inlet Node,2,OFFICE_OPEN_2_Z12_RETURNAIR,OFFICE_OPEN_2_Z12_AIRLOOP
 Return Air Path,13,CONFERENCE_3_Z13_RETURNAIRPATH,CONFERENCE_3_Z13_AIRLOOP
   #Components on Return Air Path,1
   Return Air Path Component,1,AIRLOOPHVAC:ZONEMIXER,CONFERENCE_3_Z13_RETURNAIRMIXER,CONFERENCE_3_Z13_AIRLOOP
     #Inlet Nodes on Return Air Path Component,1
     Return Air Path Component Nodes,1,AIRLOOPHVAC:ZONEMIXER,CONFERENCE_3_Z13_RETURNAIRMIXER,CONFERENCE_3_Z13_RETURNAIR,CONFERENCE_3_Z13_ZONEEQUIPMENTOUTLETNODE,CONFERENCE_3_Z13_AIRLOOP
! <#Nodes on Return Air Path>,<Number of Nodes>
! <Return Air Path Node>,<Node Type>,<Node Count>,<Node Name>,<AirLoopHVAC Name>
   #Nodes on Return Air Path,2
   Return Air Path Node,Outlet Node,1,CONFERENCE_3_Z13_ZONEEQUIPMENTOUTLETNODE,CONFERENCE_3_Z13_AIRLOOP
   Return Air Path Node,Inlet Node,2,CONFERENCE_3_Z13_RETURNAIR,CONFERENCE_3_Z13_AIRLOOP
 Return Air Path,14,MECHANICAL_3_Z14_RETURNAIRPATH,MECHANICAL_3_Z14_AIRLOOP
   #Components on Return Air Path,1
   Return Air Path Component,1,AIRLOOPHVAC:ZONEMIXER,MECHANICAL_3_Z14_RETURNAIRMIXER,MECHANICAL_3_Z14_AIRLOOP
     #Inlet Nodes on Return Air Path Component,1
     Return Air Path Component Nodes,1,AIRLOOPHVAC:ZONEMIXER,MECHANICAL_3_Z14_RETURNAIRMIXER,MECHANICAL_3_Z14_RETURNAIR,MECHANICAL_3_Z14_ZONEEQUIPMENTOUTLETNODE,MECHANICAL_3_Z14_AIRLOOP
! <#Nodes on Return Air Path>,<Number of Nodes>
! <Return Air Path Node>,<Node Type>,<Node Count>,<Node Name>,<AirLoopHVAC Name>
   #Nodes on Return Air Path,2
[...]
 Non-Parent Node Connection,STORAGE_0_Z4_HEATC-FANNODE,FAN:VARIABLEVOLUME,STORAGE_0_Z4_SUPPLYFAN,Inlet,1
 Non-Parent Node Connection,STORAGE_0_Z4_SUPPLYEQUIPMENTOUTLETNODE,FAN:VARIABLEVOLUME,STORAGE_0_Z4_SUPPLYFAN,Outlet,1
 Non-Parent Node Connection,LOBBY_1_Z5_HEATC-FANNODE,FAN:VARIABLEVOLUME,LOBBY_1_Z5_SUPPLYFAN,Inlet,1
 Non-Parent Node Connection,LOBBY_1_Z5_SUPPLYEQUIPMENTOUTLETNODE,FAN:VARIABLEVOLUME,LOBBY_1_Z5_SUPPLYFAN,Outlet,1
 Non-Parent Node Connection,CONFERENCE_1_Z6_HEATC-FANNODE,FAN:VARIABLEVOLUME,CONFERENCE_1_Z6_SUPPLYFAN,Inlet,1
 Non-Parent Node Connection,CONFERENCE_1_Z6_SUPPLYEQUIPMENTOUTLETNODE,FAN:VARIABLEVOLUME,CONFERENCE_1_Z6_SUPPLYFAN,Outlet,1
 Non-Parent Node Connection,BREAK_ROOM_1_Z7_HEATC-FANNODE,FAN:VARIABLEVOLUME,BREAK_ROOM_1_Z7_SUPPLYFAN,Inlet,1
 Non-Parent Node Connection,BREAK_ROOM_1_Z7_SUPPLYEQUIPMENTOUTLETNODE,FAN:VARIABLEVOLUME,BREAK_ROOM_1_Z7_SUPPLYFAN,Outlet,1
 Non-Parent Node Connection,OFFICE_PRIVATE_1_Z8_HEATC-FANNODE,FAN:VARIABLEVOLUME,OFFICE_PRIVATE_1_Z8_SUPPLYFAN,Inlet,1
 Non-Parent Node Connection,OFFICE_PRIVATE_1_Z8_SUPPLYEQUIPMENTOUTLETNODE,FAN:VARIABLEVOLUME,OFFICE_PRIVATE_1_Z8_SUPPLYFAN,Outlet,1
 Non-Parent Node Connection,CONFERENCE_2_Z9_HEATC-FANNODE,FAN:VARIABLEVOLUME,CONFERENCE_2_Z9_SUPPLYFAN,Inlet,1
 Non-Parent Node Connection,CONFERENCE_2_Z9_SUPPLYEQUIPMENTOUTLETNODE,FAN:VARIABLEVOLUME,CONFERENCE_2_Z9_SUPPLYFAN,Outlet,1
 Non-Parent Node Connection,BREAK_ROOM_2_Z10_HEATC-FANNODE,FAN:VARIABLEVOLUME,BREAK_ROOM_2_Z10_SUPPLYFAN,Inlet,1
 Non-Parent Node Connection,BREAK_ROOM_2_Z10_SUPPLYEQUIPMENTOUTLETNODE,FAN:VARIABLEVOLUME,BREAK_ROOM_2_Z10_SUPPLYFAN,Outlet,1
 Non-Parent Node Connection,MECHANICAL_2_Z11_HEATC-FANNODE,FAN:VARIABLEVOLUME,MECHANICAL_2_Z11_SUPPLYFAN,Inlet,1
 Non-Parent Node Connection,MECHANICAL_2_Z11_SUPPLYEQUIPMENTOUTLETNODE,FAN:VARIABLEVOLUME,MECHANICAL_2_Z11_SUPPLYFAN,Outlet,1
 Non-Parent Node Connection,OFFICE_OPEN_2_Z12_HEATC-FANNODE,FAN:VARIABLEVOLUME,OFFICE_OPEN_2_Z12_SUPPLYFAN,Inlet,1
 Non-Parent Node Connection,OFFICE_OPEN_2_Z12_SUPPLYEQUIPMENTOUTLETNODE,FAN:VARIABLEVOLUME,OFFICE_OPEN_2_Z12_SUPPLYFAN,Outlet,1
 Non-Parent Node Connection,CONFERENCE_3_Z13_HEATC-FANNODE,FAN:VARIABLEVOLUME,CONFERENCE_3_Z13_SUPPLYFAN,Inlet,1
 Non-Parent Node Connection,CONFERENCE_3_Z13_SUPPLYEQUIPMENTOUTLETNODE,FAN:VARIABLEVOLUME,CONFERENCE_3_Z13_SUPPLYFAN,Outlet,1
 Non-Parent Node Connection,MECHANICAL_3_Z14_HEATC-FANNODE,FAN:VARIABLEVOLUME,MECHANICAL_3_Z14_SUPPLYFAN,Inlet,1
 Non-Parent Node Connection,MECHANICAL_3_Z14_SUPPLYEQUIPMENTOUTLETNODE,FAN:VARIABLEVOLUME,MECHANICAL_3_Z14_SUPPLYFAN,Outlet,1
 Non-Parent Node Connection,OFFICE_OPEN_3_Z15_HEATC-FANNODE,FAN:VARIABLEVOLUME,OFFICE_OPEN_3_Z15_SUPPLYFAN,Inlet,1
 Non-Parent Node Connection,OFFICE_OPEN_3_Z15_SUPPLYEQUIPMENTOUTLETNODE,FAN:VARIABLEVOLUME,OFFICE_OPEN_3_Z15_SUPPLYFAN,Outlet,1
 Non-Parent Node Connection,STORAGE_3_Z16_HEATC-FANNODE,FAN:VARIABLEVOLUME,STORAGE_3_Z16_SUPPLYFAN,Inlet,1
 Non-Parent Node Connection,STORAGE_3_Z16_SUPPLYEQUIPMENTOUTLETNODE,FAN:VARIABLEVOLUME,STORAGE_3_Z16_SUPPLYFAN,Outlet,1
 Non-Parent Node Connection,LOBBY_4_Z17_HEATC-FANNODE,FAN:VARIABLEVOLUME,LOBBY_4_Z17_SUPPLYFAN,Inlet,1
 Non-Parent Node Connection,LOBBY_4_Z17_SUPPLYEQUIPMENTOUTLETNODE,FAN:VARIABLEVOLUME,LOBBY_4_Z17_SUPPLYFAN,Outlet,1
 Non-Parent Node Connection,CONFERENCE_4_Z18_HEATC-FANNODE,FAN:VARIABLEVOLUME,CONFERENCE_4_Z18_SUPPLYFAN,Inlet,1
 Non-Parent Node Connection,CONFERENCE_4_Z18_SUPPLYEQUIPMENTOUTLETNODE,FAN:VARIABLEVOLUME,CONFERENCE_4_Z18_SUPPLYFAN,Outlet,1
 Non-Parent Node Connection,BREAK_ROOM_4_Z19_HEATC-FANNODE,FAN:VARIABLEVOLUME,BREAK_ROOM_4_Z19_SUPPLYFAN,Inlet,1
 Non-Parent Node Connection,BREAK_ROOM_4_Z19_SUPPLYEQUIPMENTOUTLETNODE,FAN:VARIABLEVOLUME,BREAK_ROOM_4_Z19_SUPPLYFAN,Outlet,1
 Non-Parent Node Connection,MECHANICAL_4_Z20_HEATC-FANNODE,FAN:VARIABLEVOLUME,MECHANICAL_4_Z20_SUPPLYFAN,Inlet,1
 Non-Parent Node Connection,MECHANICAL_4_Z20_SUPPLYEQUIPMENTOUTLETNODE,FAN:VARIABLEVOLUME,MECHANICAL_4_Z20_SUPPLYFAN,Outlet,1
 Non-Parent Node Connection,OFFICE_OPEN_4_Z21_HEATC-FANNODE,FAN:VARIABLEVOLUME,OFFICE_OPEN_4_Z21_SUPPLYFAN,Inlet,1
 Non-Parent Node Connection,OFFICE_OPEN_4_Z21_SUPPLYEQUIPMENTOUTLETNODE,FAN:VARIABLEVOLUME,OFFICE_OPEN_4_Z21_SUPPLYFAN,Outlet,1
 Non-Parent Node Connection,CONFERENCE_5_Z22_HEATC-FANNODE,FAN:VARIABLEVOLUME,CONFERENCE_5_Z22_SUPPLYFAN,Inlet,1
 Non-Parent Node Connection,CONFERENCE_5_Z22_SUPPLYEQUIPMENTOUTLETNODE,FAN:VARIABLEVOLUME,CONFERENCE_5_Z22_SUPPLYFAN,Outlet,1
 Non-Parent Node Connection,BREAK_ROOM_5_Z23_HEATC-FANNODE,FAN:VARIABLEVOLUME,BREAK_ROOM_5_Z23_SUPPLYFAN,Inlet,1
 Non-Parent Node Connection,BREAK_ROOM_5_Z23_SUPPLYEQUIPMENTOUTLETNODE,FAN:VARIABLEVOLUME,BREAK_ROOM_5_Z23_SUPPLYFAN,Outlet,1
 Non-Parent Node Connection,MECHANICAL_5_Z24_HEATC-FANNODE,FAN:VARIABLEVOLUME,MECHANICAL_5_Z24_SUPPLYFAN,Inlet,1
 Non-Parent Node Connection,MECHANICAL_5_Z24_SUPPLYEQUIPMENTOUTLETNODE,FAN:VARIABLEVOLUME,MECHANICAL_5_Z24_SUPPLYFAN,Outlet,1
 Non-Parent Node Connection,OFFICE_PRIVATE_5_Z25_HEATC-FANNODE,FAN:VARIABLEVOLUME,OFFICE_PRIVATE_5_Z25_SUPPLYFAN,Inlet,1
 Non-Parent Node Connection,OFFICE_PRIVATE_5_Z25_SUPPLYEQUIPMENTOUTLETNODE,FAN:VARIABLEVOLUME,OFFICE_PRIVATE_5_Z25_SUPPLYFAN,Outlet,1
 Non-Parent Node Connection,OFFICE_PRIVATE_6_Z26_HEATC-FANNODE,FAN:VARIABLEVOLUME,OFFICE_PRIVATE_6_Z26_SUPPLYFAN,Inlet,1
 Non-Parent Node Connection,OFFICE_PRIVATE_6_Z26_SUPPLYEQUIPMENTOUTLETNODE,FAN:VARIABLEVOLUME,OFFICE_PRIVATE_6_Z26_SUPPLYFAN,Outlet,1
 Non-Parent Node Connection,LOBBY_7_Z27_HEATC-FANNODE,FAN:VARIABLEVOLUME,LOBBY_7_Z27_SUPPLYFAN,Inlet,1
 Non-Parent Node Connection,LOBBY_7_Z27_SUPPLYEQUIPMENTOUTLETNODE,FAN:VARIABLEVOLUME,LOBBY_7_Z27_SUPPLYFAN,Outlet,1
 Non-Parent Node Connection,BREAK_ROOM_7_Z28_HEATC-FANNODE,FAN:VARIABLEVOLUME,BREAK_ROOM_7_Z28_SUPPLYFAN,Inlet,1
 Non-Parent Node Connection,BREAK_ROOM_7_Z28_SUPPLYEQUIPMENTOUTLETNODE,FAN:VARIABLEVOLUME,BREAK_ROOM_7_Z28_SUPPLYFAN,Outlet,1
 Non-Parent Node Connection,MECHANICAL_7_Z29_HEATC-FANNODE,FAN:VARIABLEVOLUME,MECHANICAL_7_Z29_SUPPLYFAN,Inlet,1
 Non-Parent Node Connection,MECHANICAL_7_Z29_SUPPLYEQUIPMENTOUTLETNODE,FAN:VARIABLEVOLUME,MECHANICAL_7_Z29_SUPPLYFAN,Outlet,1
 Non-Parent Node Connection,OFFICE_OPEN_7_Z30_HEATC-FANNODE,FAN:VARIABLEVOLUME,OFFICE_OPEN_7_Z30_SUPPLYFAN,Inlet,1
 Non-Parent Node Connection,OFFICE_OPEN_7_Z30_SUPPLYEQUIPMENTOUTLETNODE,FAN:VARIABLEVOLUME,OFFICE_OPEN_7_Z30_SUPPLYFAN,Outlet,1
 Non-Parent Node Connection,OFFICE_PRIVATE_7_Z31_HEATC-FANNODE,FAN:VARIABLEVOLUME,OFFICE_PRIVATE_7_Z31_SUPPLYFAN,Inlet,1
 Non-Parent Node Connection,OFFICE_PRIVATE_7_Z31_SUPPLYEQUIPMENTOUTLETNODE,FAN:VARIABLEVOLUME,OFFICE_PRIVATE_7_Z31_SUPPLYFAN,Outlet,1
 Non-Parent Node Connection,STORAGE_7_Z32_HEATC-FANNODE,FAN:VARIABLEVOLUME,STORAGE_7_Z32_SUPPLYFAN,Inlet,1
 Non-Parent Node Connection,STORAGE_7_Z32_SUPPLYEQUIPMENTOUTLETNODE,FAN:VARIABLEVOLUME,STORAGE_7_Z32_SUPPLYFAN,Outlet,1
 Non-Parent Node Connection,CONFERENCE_8_Z33_HEATC-FANNODE,FAN:VARIABLEVOLUME,CONFERENCE_8_Z33_SUPPLYFAN,Inlet,1
 Non-Parent Node Connection,CONFERENCE_8_Z33_SUPPLYEQUIPMENTOUTLETNODE,FAN:VARIABLEVOLUME,CONFERENCE_8_Z33_SUPPLYFAN,Outlet,1
 Non-Parent Node Connection,BREAK_ROOM_8_Z34_HEATC-FANNODE,FAN:VARIABLEVOLUME,BREAK_ROOM_8_Z34_SUPPLYFAN,Inlet,1
 Non-Parent Node Connection,BREAK_ROOM_8_Z34_SUPPLYEQUIPMENTOUTLETNODE,FAN:VARIABLEVOLUME,BREAK_ROOM_8_Z34_SUPPLYFAN,Outlet,1
 Non-Parent Node Connection,MECHANICAL_8_Z35_HEATC-FANNODE,FAN:VARIABLEVOLUME,MECHANICAL_8_Z35_SUPPLYFAN,Inlet,1
 Non-Parent Node Connection,MECHANICAL_8_Z35_SUPPLYEQUIPMENTOUTLETNODE,FAN:VARIABLEVOLUME,MECHANICAL_8_Z35_SUPPLYFAN,Outlet,1
 Non-Parent Node Connection,OFFICE_OPEN_8_Z36_HEATC-FANNODE,FAN:VARIABLEVOLUME,OFFICE_OPEN_8_Z36_SUPPLYFAN,Inlet,1
 Non-Parent Node Connection,OFFICE_OPEN_8_Z36_SUPPLYEQUIPMENTOUTLETNODE,FAN:VARIABLEVOLUME,OFFICE_OPEN_8_Z36_SUPPLYFAN,Outlet,1
 Non-Parent Node Connection,STORAGE_8_Z37_HEATC-FANNODE,FAN:VARIABLEVOLUME,STORAGE_8_Z37_SUPPLYFAN,Inlet,1
 Non-Parent Node Connection,STORAGE_8_Z37_SUPPLYEQUIPMENTOUTLETNODE,FAN:VARIABLEVOLUME,STORAGE_8_Z37_SUPPLYFAN,Outlet,1
 Non-Parent Node Connection,CONFERENCE_9_Z38_HEATC-FANNODE,FAN:VARIABLEVOLUME,CONFERENCE_9_Z38_SUPPLYFAN,Inlet,1
 Non-Parent Node Connection,CONFERENCE_9_Z38_SUPPLYEQUIPMENTOUTLETNODE,FAN:VARIABLEVOLUME,CONFERENCE_9_Z38_SUPPLYFAN,Outlet,1
 Non-Parent Node Connection,BREAK_ROOM_9_Z39_HEATC-FANNODE,FAN:VARIABLEVOLUME,BREAK_ROOM_9_Z39_SUPPLYFAN,Inlet,1
 Non-Parent Node Connection,BREAK_ROOM_9_Z39_SUPPLYEQUIPMENTOUTLETNODE,FAN:VARIABLEVOLUME,BREAK_ROOM_9_Z39_SUPPLYFAN,Outlet,1
 Non-Parent Node Connection,MECHANICAL_9_Z40_HEATC-FANNODE,FAN:VARIABLEVOLUME,MECHANICAL_9_Z40_SUPPLYFAN,Inlet,1
 Non-Parent Node Connection,MECHANICAL_9_Z40_SUPPLYEQUIPMENTOUTLETNODE,FAN:VARIABLEVOLUME,MECHANICAL_9_Z40_SUPPLYFAN,Outlet,1
 Non-Parent Node Connection,OFFICE_OPEN_9_Z41_HEATC-FANNODE,FAN:VARIABLEVOLUME,OFFICE_OPEN_9_Z41_SUPPLYFAN,Inlet,1
 Non-Parent Node Connection,OFFICE_OPEN_9_Z41_SUPPLYEQUIPMENTOUTLETNODE,FAN:VARIABLEVOLUME,OFFICE_OPEN_9_Z41_SUPPLYFAN,Outlet,1
 Non-Parent Node Connection,OFFICE_PRIVATE_9_Z42_HEATC-FANNODE,FAN:VARIABLEVOLUME,OFFICE_PRIVATE_9_Z42_SUPPLYFAN,Inlet,1
 Non-Parent Node Connection,OFFICE_PRIVATE_9_Z42_SUPPLYEQUIPMENTOUTLETNODE,FAN:VARIABLEVOLUME,OFFICE_PRIVATE_9_Z42_SUPPLYFAN,Outlet,1
 Non-Parent Node Connection,CONFERENCE_0_Z1_SUPPLYINLET,COIL:COOLING:DX:SINGLESPEED,CONFERENCE_0_Z1_COOLINGCOILDX,Inlet,1
 Non-Parent Node Connection,CONFERENCE_0_Z1_COOLC-HEATCNODE,COIL:COOLING:DX:SINGLESPEED,CONFERENCE_0_Z1_COOLINGCOILDX,Outlet,1
 Non-Parent Node Connection,MECHANICAL_0_Z2_SUPPLYINLET,COIL:COOLING:DX:SINGLESPEED,MECHANICAL_0_Z2_COOLINGCOILDX,Inlet,1
 Non-Parent Node Connection,MECHANICAL_0_Z2_COOLC-HEATCNODE,COIL:COOLING:DX:SINGLESPEED,MECHANICAL_0_Z2_COOLINGCOILDX,Outlet,1
 Non-Parent Node Connection,OFFICE_OPEN_0_Z3_SUPPLYINLET,COIL:COOLING:DX:SINGLESPEED,OFFICE_OPEN_0_Z3_COOLINGCOILDX,Inlet,1
 Non-Parent Node Connection,OFFICE_OPEN_0_Z3_COOLC-HEATCNODE,COIL:COOLING:DX:SINGLESPEED,OFFICE_OPEN_0_Z3_COOLINGCOILDX,Outlet,1
 Non-Parent Node Connection,STORAGE_0_Z4_SUPPLYINLET,COIL:COOLING:DX:SINGLESPEED,STORAGE_0_Z4_COOLINGCOILDX,Inlet,1
 Non-Parent Node Connection,STORAGE_0_Z4_COOLC-HEATCNODE,COIL:COOLING:DX:SINGLESPEED,STORAGE_0_Z4_COOLINGCOILDX,Outlet,1
 Non-Parent Node Connection,LOBBY_1_Z5_SUPPLYINLET,COIL:COOLING:DX:SINGLESPEED,LOBBY_1_Z5_COOLINGCOILDX,Inlet,1
 Non-Parent Node Connection,LOBBY_1_Z5_COOLC-HEATCNODE,COIL:COOLING:DX:SINGLESPEED,LOBBY_1_Z5_COOLINGCOILDX,Outlet,1
 Non-Parent Node Connection,CONFERENCE_1_Z6_SUPPLYINLET,COIL:COOLING:DX:SINGLESPEED,CONFERENCE_1_Z6_COOLINGCOILDX,Inlet,1
 Non-Parent Node Connection,CONFERENCE_1_Z6_COOLC-HEATCNODE,COIL:COOLING:DX:SINGLESPEED,CONFERENCE_1_Z6_COOLINGCOILDX,Outlet,1
 Non-Parent Node Connection,BREAK_ROOM_1_Z7_SUPPLYINLET,COIL:COOLING:DX:SINGLESPEED,BREAK_ROOM_1_Z7_COOLINGCOILDX,Inlet,1
 Non-Parent Node Connection,BREAK_ROOM_1_Z7_COOLC-HEATCNODE,COIL:COOLING:DX:SINGLESPEED,BREAK_ROOM_1_Z7_COOLINGCOILDX,Outlet,1
 Non-Parent Node Connection,OFFICE_PRIVATE_1_Z8_SUPPLYINLET,COIL:COOLING:DX:SINGLESPEED,OFFICE_PRIVATE_1_Z8_COOLINGCOILDX,Inlet,1
 Non-Parent Node Connection,OFFICE_PRIVATE_1_Z8_COOLC-HEATCNODE,COIL:COOLING:DX:SINGLESPEED,OFFICE_PRIVATE_1_Z8_COOLINGCOILDX,Outlet,1
 Non-Parent Node Connection,CONFERENCE_2_Z9_SUPPLYINLET,COIL:COOLING:DX:SINGLESPEED,CONFERENCE_2_Z9_COOLINGCOILDX,Inlet,1
 Non-Parent Node Connection,CONFERENCE_2_Z9_COOLC-HEATCNODE,COIL:COOLING:DX:SINGLESPEED,CONFERENCE_2_Z9_COOLINGCOILDX,Outlet,1
 Non-Parent Node Connection,BREAK_ROOM_2_Z10_SUPPLYINLET,COIL:COOLING:DX:SINGLESPEED,BREAK_ROOM_2_Z10_COOLINGCOILDX,Inlet,1
 Non-Parent Node Connection,BREAK_ROOM_2_Z10_COOLC-HEATCNODE,COIL:COOLING:DX:SINGLESPEED,BREAK_ROOM_2_Z10_COOLINGCOILDX,Outlet,1
 Non-Parent Node Connection,MECHANICAL_2_Z11_SUPPLYINLET,COIL:COOLING:DX:SINGLESPEED,MECHANICAL_2_Z11_COOLINGCOILDX,Inlet,1
 Non-Parent Node Connection,MECHANICAL_2_Z11_COOLC-HEATCNODE,COIL:COOLING:DX:SINGLESPEED,MECHANICAL_2_Z11_COOLINGCOILDX,Outlet,1
 Non-Parent Node Connection,OFFICE_OPEN_2_Z12_SUPPLYINLET,COIL:COOLING:DX:SINGLESPEED,OFFICE_OPEN_2_Z12_COOLINGCOILDX,Inlet,1
 Non-Parent Node Connection,OFFICE_OPEN_2_Z12_COOLC-HEATCNODE,COIL:COOLING:DX:SINGLESPEED,OFFICE_OPEN_2_Z12_COOLINGCOILDX,Outlet,1
 Non-Parent Node Connection,CONFERENCE_3_Z13_SUPPLYINLET,COIL:COOLING:DX:SINGLESPEED,CONFERENCE_3_Z13_COOLINGCOILDX,Inlet,1
 Non-Parent Node Connection,CONFERENCE_3_Z13_COOLC-HEATCNODE,COIL:COOLING:DX:SINGLESPEED,CONFERENCE_3_Z13_COOLINGCOILDX,Outlet,1
 Non-Parent Node Connection,MECHANICAL_3_Z14_SUPPLYINLET,COIL:COOLING:DX:SINGLESPEED,MECHANICAL_3_Z14_COOLINGCOILDX,Inlet,1
 Non-Parent Node Connection,MECHANICAL_3_Z14_COOLC-HEATCNODE,COIL:COOLING:DX:SINGLESPEED,MECHANICAL_3_Z14_COOLINGCOILDX,Outlet,1
 Non-Parent Node Connection,OFFICE_OPEN_3_Z15_SUPPLYINLET,COIL:COOLING:DX:SINGLESPEED,OFFICE_OPEN_3_Z15_COOLINGCOILDX,Inlet,1
 Non-Parent Node Connection,OFFICE_OPEN_3_Z15_COOLC-HEATCNODE,COIL:COOLING:DX:SINGLESPEED,OFFICE_OPEN_3_Z15_COOLINGCOILDX,Outlet,1
 Non-Parent Node Connection,STORAGE_3_Z16_SUPPLYINLET,COIL:COOLING:DX:SINGLESPEED,STORAGE_3_Z16_COOLINGCOILDX,Inlet,1
 Non-Parent Node Connection,STORAGE_3_Z16_COOLC-HEATCNODE,COIL:COOLING:DX:SINGLESPEED,STORAGE_3_Z16_COOLINGCOILDX,Outlet,1
 Non-Parent Node Connection,LOBBY_4_Z17_SUPPLYINLET,COIL:COOLING:DX:SINGLESPEED,LOBBY_4_Z17_COOLINGCOILDX,Inlet,1
 Non-Parent Node Connection,LOBBY_4_Z17_COOLC-HEATCNODE,COIL:COOLING:DX:SINGLESPEED,LOBBY_4_Z17_COOLINGCOILDX,Outlet,1
 Non-Parent Node Connection,CONFERENCE_4_Z18_SUPPLYINLET,COIL:COOLING:DX:SINGLESPEED,CONFERENCE_4_Z18_COOLINGCOILDX,Inlet,1
 Non-Parent Node Connection,CONFERENCE_4_Z18_COOLC-HEATCNODE,COIL:COOLING:DX:SINGLESPEED,CONFERENCE_4_Z18_COOLINGCOILDX,Outlet,1
 Non-Parent Node Connection,BREAK_ROOM_4_Z19_SUPPLYINLET,COIL:COOLING:DX:SINGLESPEED,BREAK_ROOM_4_Z19_COOLINGCOILDX,Inlet,1
 Non-Parent Node Connection,BREAK_ROOM_4_Z19_COOLC-HEATCNODE,COIL:COOLING:DX:SINGLESPEED,BREAK_ROOM_4_Z19_COOLINGCOILDX,Outlet,1
 Non-Parent Node Connection,MECHANICAL_4_Z20_SUPPLYINLET,COIL:COOLING:DX:SINGLESPEED,MECHANICAL_4_Z20_COOLINGCOILDX,Inlet,1
 Non-Parent Node Connection,MECHANICAL_4_Z20_COOLC-HEATCNODE,COIL:COOLING:DX:SINGLESPEED,MECHANICAL_4_Z20_COOLINGCOILDX,Outlet,1
 Non-Parent Node Connection,OFFICE_OPEN_4_Z21_SUPPLYINLET,COIL:COOLING:DX:SINGLESPEED,OFFICE_OPEN_4_Z21_COOLINGCOILDX,Inlet,1
 Non-Parent Node Connection,OFFICE_OPEN_4_Z21_COOLC-HEATCNODE,COIL:COOLING:DX:SINGLESPEED,OFFICE_OPEN_4_Z21_COOLINGCOILDX,Outlet,1
 Non-Parent Node Connection,CONFERENCE_5_Z22_SUPPLYINLET,COIL:COOLING:DX:SINGLESPEED,CONFERENCE_5_Z22_COOLINGCOILDX,Inlet,1
 Non-Parent Node Connection,CONFERENCE_5_Z22_COOLC-HEATCNODE,COIL:COOLING:DX:SINGLESPEED,CONFERENCE_5_Z22_COOLINGCOILDX,Outlet,1
 Non-Parent Node Connection,BREAK_ROOM_5_Z23_SUPPLYINLET,COIL:COOLING:DX:SINGLESPEED,BREAK_ROOM_5_Z23_COOLINGCOILDX,Inlet,1
 Non-Parent Node Connection,BREAK_ROOM_5_Z23_COOLC-HEATCNODE,COIL:COOLING:DX:SINGLESPEED,BREAK_ROOM_5_Z23_COOLINGCOILDX,Outlet,1
 Non-Parent Node Connection,MECHANICAL_5_Z24_SUPPLYINLET,COIL:COOLING:DX:SINGLESPEED,MECHANICAL_5_Z24_COOLINGCOILDX,Inlet,1
 Non-Parent Node Connection,MECHANICAL_5_Z24_COOLC-HEATCNODE,COIL:COOLING:DX:SINGLESPEED,MECHANICAL_5_Z24_COOLINGCOILDX,Outlet,1
 Non-Parent Node Connection,OFFICE_PRIVATE_5_Z25_SUPPLYINLET,COIL:COOLING:DX:SINGLESPEED,OFFICE_PRIVATE_5_Z25_COOLINGCOILDX,Inlet,1
 Non-Parent Node Connection,OFFICE_PRIVATE_5_Z25_COOLC-HEATCNODE,COIL:COOLING:DX:SINGLESPEED,OFFICE_PRIVATE_5_Z25_COOLINGCOILDX,Outlet,1
 Non-Parent Node Connection,OFFICE_PRIVATE_6_Z26_SUPPLYINLET,COIL:COOLING:DX:SINGLESPEED,OFFICE_PRIVATE_6_Z26_COOLINGCOILDX,Inlet,1
 Non-Parent Node Connection,OFFICE_PRIVATE_6_Z26_COOLC-HEATCNODE,COIL:COOLING:DX:SINGLESPEED,OFFICE_PRIVATE_6_Z26_COOLINGCOILDX,Outlet,1
 Non-Parent Node Connection,LOBBY_7_Z27_SUPPLYINLET,COIL:COOLING:DX:SINGLESPEED,LOBBY_7_Z27_COOLINGCOILDX,Inlet,1
 Non-Parent Node Connection,LOBBY_7_Z27_COOLC-HEATCNODE,COIL:COOLING:DX:SINGLESPEED,LOBBY_7_Z27_COOLINGCOILDX,Outlet,1
 Non-Parent Node Connection,BREAK_ROOM_7_Z28_SUPPLYINLET,COIL:COOLING:DX:SINGLESPEED,BREAK_ROOM_7_Z28_COOLINGCOILDX,Inlet,1
 Non-Parent Node Connection,BREAK_ROOM_7_Z28_COOLC-HEATCNODE,COIL:COOLING:DX:SINGLESPEED,BREAK_ROOM_7_Z28_COOLINGCOILDX,Outlet,1
 Non-Parent Node Connection,MECHANICAL_7_Z29_SUPPLYINLET,COIL:COOLING:DX:SINGLESPEED,MECHANICAL_7_Z29_COOLINGCOILDX,Inlet,1
 Non-Parent Node Connection,MECHANICAL_7_Z29_COOLC-HEATCNODE,COIL:COOLING:DX:SINGLESPEED,MECHANICAL_7_Z29_COOLINGCOILDX,Outlet,1
 Non-Parent Node Connection,OFFICE_OPEN_7_Z30_SUPPLYINLET,COIL:COOLING:DX:SINGLESPEED,OFFICE_OPEN_7_Z30_COOLINGCOILDX,Inlet,1
 Non-Parent Node Connection,OFFICE_OPEN_7_Z30_COOLC-HEATCNODE,COIL:COOLING:DX:SINGLESPEED,OFFICE_OPEN_7_Z30_COOLINGCOILDX,Outlet,1
 Non-Parent Node Connection,OFFICE_PRIVATE_7_Z31_SUPPLYINLET,COIL:COOLING:DX:SINGLESPEED,OFFICE_PRIVATE_7_Z31_COOLINGCOILDX,Inlet,1
 Non-Parent Node Connection,OFFICE_PRIVATE_7_Z31_COOLC-HEATCNODE,COIL:COOLING:DX:SINGLESPEED,OFFICE_PRIVATE_7_Z31_COOLINGCOILDX,Outlet,1
 Non-Parent Node Connection,STORAGE_7_Z32_SUPPLYINLET,COIL:COOLING:DX:SINGLESPEED,STORAGE_7_Z32_COOLINGCOILDX,Inlet,1
 Non-Parent Node Connection,STORAGE_7_Z32_COOLC-HEATCNODE,COIL:COOLING:DX:SINGLESPEED,STORAGE_7_Z32_COOLINGCOILDX,Outlet,1
 Non-Parent Node Connection,CONFERENCE_8_Z33_SUPPLYINLET,COIL:COOLING:DX:SINGLESPEED,CONFERENCE_8_Z33_COOLINGCOILDX,Inlet,1
 Non-Parent Node Connection,CONFERENCE_8_Z33_COOLC-HEATCNODE,COIL:COOLING:DX:SINGLESPEED,CONFERENCE_8_Z33_COOLINGCOILDX,Outlet,1
 Non-Parent Node Connection,BREAK_ROOM_8_Z34_SUPPLYINLET,COIL:COOLING:DX:SINGLESPEED,BREAK_ROOM_8_Z34_COOLINGCOILDX,Inlet,1
 Non-Parent Node Connection,BREAK_ROOM_8_Z34_COOLC-HEATCNODE,COIL:COOLING:DX:SINGLESPEED,BREAK_ROOM_8_Z34_COOLINGCOILDX,Outlet,1
 Non-Parent Node Connection,MECHANICAL_8_Z35_SUPPLYINLET,COIL:COOLING:DX:SINGLESPEED,MECHANICAL_8_Z35_COOLINGCOILDX,Inlet,1
 Non-Parent Node Connection,MECHANICAL_8_Z35_COOLC-HEATCNODE,COIL:COOLING:DX:SINGLESPEED,MECHANICAL_8_Z35_COOLINGCOILDX,Outlet,1
 Non-Parent Node Connection,OFFICE_OPEN_8_Z36_SUPPLYINLET,COIL:COOLING:DX:SINGLESPEED,OFFICE_OPEN_8_Z36_COOLINGCOILDX,Inlet,1
 Non-Parent Node Connection,OFFICE_OPEN_8_Z36_COOLC-HEATCNODE,COIL:COOLING:DX:SINGLESPEED,OFFICE_OPEN_8_Z36_COOLINGCOILDX,Outlet,1
 Non-Parent Node Connection,STORAGE_8_Z37_SUPPLYINLET,COIL:COOLING:DX:SINGLESPEED,STORAGE_8_Z37_COOLINGCOILDX,Inlet,1
 Non-Parent Node Connection,STORAGE_8_Z37_COOLC-HEATCNODE,COIL:COOLING:DX:SINGLESPEED,STORAGE_8_Z37_COOLINGCOILDX,Outlet,1
 Non-Parent Node Connection,CONFERENCE_9_Z38_SUPPLYINLET,COIL:COOLING:DX:SINGLESPEED,CONFERENCE_9_Z38_COOLINGCOILDX,Inlet,1
 Non-Parent Node Connection,CONFERENCE_9_Z38_COOLC-HEATCNODE,COIL:COOLING:DX:SINGLESPEED,CONFERENCE_9_Z38_COOLINGCOILDX,Outlet,1
 Non-Parent Node Connection,BREAK_ROOM_9_Z39_SUPPLYINLET,COIL:COOLING:DX:SINGLESPEED,BREAK_ROOM_9_Z39_COOLINGCOILDX,Inlet,1
 Non-Parent Node Connection,BREAK_ROOM_9_Z39_COOLC-HEATCNODE,COIL:COOLING:DX:SINGLESPEED,BREAK_ROOM_9_Z39_COOLINGCOILDX,Outlet,1
 Non-Parent Node Connection,MECHANICAL_9_Z40_SUPPLYINLET,COIL:COOLING:DX:SINGLESPEED,MECHANICAL_9_Z40_COOLINGCOILDX,Inlet,1
 Non-Parent Node Connection,MECHANICAL_9_Z40_COOLC-HEATCNODE,COIL:COOLING:DX:SINGLESPEED,MECHANICAL_9_Z40_COOLINGCOILDX,Outlet,1
 Non-Parent Node Connection,OFFICE_OPEN_9_Z41_SUPPLYINLET,COIL:COOLING:DX:SINGLESPEED,OFFICE_OPEN_9_Z41_COOLINGCOILDX,Inlet,1
 Non-Parent Node Connection,OFFICE_OPEN_9_Z41_COOLC-HEATCNODE,COIL:COOLING:DX:SINGLESPEED,OFFICE_OPEN_9_Z41_COOLINGCOILDX,Outlet,1
 Non-Parent Node Connection,OFFICE_PRIVATE_9_Z42_SUPPLYINLET,COIL:COOLING:DX:SINGLESPEED,OFFICE_PRIVATE_9_Z42_COOLINGCOILDX,Inlet,1
 Non-Parent Node Connection,OFFICE_PRIVATE_9_Z42_COOLC-HEATCNODE,COIL:COOLING:DX:SINGLESPEED,OFFICE_PRIVATE_9_Z42_COOLINGCOILDX,Outlet,1
