Program Version,EnergyPlus, Version 24.2.0-94a887817b, YMD=2025.11.02 21:58
! <Version>, Version ID
 Version, 24.2.0
! <Timesteps per Hour>, #TimeSteps, Minutes per TimeStep {minutes}
 Timesteps per Hour,  4, 15
! <System Convergence Limits>, Minimum System TimeStep {minutes}, Max HVAC Iterations, Minimum Plant Iterations, Maximum Plant Iterations
 System Convergence Limits, 1, 20, 2, 8
! <Simulation Control>, Do Zone Sizing, Do System Sizing, Do Plant Sizing, Do Design Days, Do Weather Simulation, Do HVAC Sizing Simulation
 Simulation Control, No, No, No, No, Yes, No
! <Performance Precision Tradeoffs>, Use Coil Direct Simulation, Zone Radiant Exchange Algorithm, Override Mode, Number of Timestep In Hour, Force Euler Method, Minimum Number of Warmup Days, Force Suppress All Begin Environment Resets, Minimum System Timestep, MaxZoneTempDiff, MaxAllowedDelTemp
 Performance Precision Tradeoffs, No, ScriptF, Normal, 4, No, 1, No, 1.0, 0.300, 2.0000E-003
! <Output Reporting Tolerances>, Tolerance for Time Heating Setpoint Not Met, Tolerance for Zone Cooling Setpoint Not Met Time
 Output Reporting Tolerances, 0.200, 0.200, 
! <Site:GroundTemperature:BuildingSurface>,Jan{C},Feb{C},Mar{C},Apr{C},May{C},Jun{C},Jul{C},Aug{C},Sep{C},Oct{C},Nov{C},Dec{C}
 Site:GroundTemperature:BuildingSurface,  16.00,  15.00,  14.00,  13.00,  14.00,  16.00,  18.00,  19.00,  19.00,  18.00,  17.00,  16.00
! <Site:GroundTemperature:FCfactorMethod>,Jan{C},Feb{C},Mar{C},Apr{C},May{C},Jun{C},Jul{C},Aug{C},Sep{C},Oct{C},Nov{C},Dec{C}
 Site:GroundTemperature:FCfactorMethod,  10.86,  10.57,  11.08,  11.88,  13.97,  15.58,  16.67,  17.00,  16.44,  15.19,  13.51,  11.96
! <Site:GroundTemperature:Shallow>,Jan{C},Feb{C},Mar{C},Apr{C},May{C},Jun{C},Jul{C},Aug{C},Sep{C},Oct{C},Nov{C},Dec{C}
 Site:GroundTemperature:Shallow,  14.00,  13.00,  12.00,  11.00,  12.00,  14.00,  16.00,  17.00,  17.00,  16.00,  15.00,  14.00
! <Site:GroundTemperature:Deep>,Jan{C},Feb{C},Mar{C},Apr{C},May{C},Jun{C},Jul{C},Aug{C},Sep{C},Oct{C},Nov{C},Dec{C}
 Site:GroundTemperature:Deep,  12.00,  11.00,  10.00,   9.00,  10.00,  12.00,  14.00,  15.00,  15.00,  14.00,  13.00,  12.00
! <Site:GroundReflectance>,Jan{dimensionless},Feb{dimensionless},Mar{dimensionless},Apr{dimensionless},May{dimensionless},Jun{dimensionless},Jul{dimensionless},Aug{dimensionless},Sep{dimensionless},Oct{dimensionless},Nov{dimensionless},Dec{dimensionless}
 Site:GroundReflectance,  0.20,  0.20,  0.20,  0.20,  0.20,  0.20,  0.20,  0.20,  0.20,  0.20,  0.20,  0.20
! <Site:GroundReflectance:SnowModifier>, Normal, Daylighting {dimensionless}
 Site:GroundReflectance:SnowModifier,   1.000,   1.000
! <Site:GroundReflectance:Snow>,Jan{dimensionless},Feb{dimensionless},Mar{dimensionless},Apr{dimensionless},May{dimensionless},Jun{dimensionless},Jul{dimensionless},Aug{dimensionless},Sep{dimensionless},Oct{dimensionless},Nov{dimensionless},Dec{dimensionless}
 Site:GroundReflectance:Snow,  0.20,  0.20,  0.20,  0.20,  0.20,  0.20,  0.20,  0.20,  0.20,  0.20,  0.20,  0.20
! <Site:GroundReflectance:Snow:Daylighting>,Jan{dimensionless},Feb{dimensionless},Mar{dimensionless},Apr{dimensionless},May{dimensionless},Jun{dimensionless},Jul{dimensionless},Aug{dimensionless},Sep{dimensionless},Oct{dimensionless},Nov{dimensionless},Dec{dimensionless}
 Site:GroundReflectance:Snow:Daylighting,  0.20,  0.20,  0.20,  0.20,  0.20,  0.20,  0.20,  0.20,  0.20,  0.20,  0.20,  0.20
! <Environment:Weather Station>,Wind Sensor Height Above Ground {m},Wind Speed Profile Exponent {},Wind Speed Profile Boundary Layer Thickness {m},Air Temperature Sensor Height Above Ground {m},Wind Speed Modifier Coefficient-Internal,Temperature Modifier Coefficient-Internal
Environment:Weather Station,10.000,0.140,270.000,1.500,1.586,9.750E-003
! <Site:Location>, Location Name, Latitude {N+/S- Deg}, Longitude {E+/W- Deg},  Time Zone Number {GMT+/-}, Elevation {m},  Standard Pressure at Elevation {Pa}, Standard RhoAir at Elevation
Site:Location,San Francisco Intl Ap CA USA TMY3 WMO#=724940,37.62,-122.40,-8.00,2.00,101301,1.2040
! <Site Water Mains Temperature Information>,Calculation Method{},Water Mains Temperature Schedule Name{},Annual Average Outdoor Air Temperature{C},Maximum Difference In Monthly Average Outdoor Air Temperatures{deltaC},Fixed Default Water Mains Temperature{C}
Site Water Mains Temperature Information,FixedDefault,NA,NA,NA,10.0
! <Building Information>, Building Name,North Axis {deg},Terrain,  Loads Convergence Tolerance Value,Temperature Convergence Tolerance Value,  Solar Distribution,Maximum Number of Warmup Days,Minimum Number of Warmup Days
 Building Information,Professional Building,0.000,Suburbs,4.00000E-002,0.20000,FullInteriorAndExterior,15,6
! <Inside Convection Algorithm>, Algorithm {Simple | TARP | CeilingDiffuser | AdaptiveConvectionAlgorithm}
Inside Convection Algorithm,TARP
! <Outside Convection Algorithm>, Algorithm {SimpleCombined | TARP | MoWitt | DOE-2 | AdaptiveConvectionAlgorithm}
Outside Convection Algorithm,DOE-2
! <Sky Radiance Distribution>, Value {Anisotropic}
Sky Radiance Distribution,Anisotropic
! <Zone Air Solution Algorithm>, Algorithm {ThirdOrderBackwardDifference | AnalyticalSolution | EulerMethod}, Space Heat Balance Sizing, Space Heat Balance Simulation
 Zone Air Solution Algorithm, ThirdOrderBackwardDifference, No, No
! <Zone Air Carbon Dioxide Balance Simulation>, Simulation {Yes/No}, Carbon Dioxide Concentration
 Zone Air Carbon Dioxide Balance Simulation, No,N/A
! <Zone Air Generic Contaminant Balance Simulation>, Simulation {Yes/No}, Generic Contaminant Concentration
 Zone Air Generic Contaminant Balance Simulation, No,N/A
! <Zone Air Mass Flow Balance Simulation>, Enforce Mass Balance, Adjust Zone Mixing and Return {AdjustMixingOnly | AdjustReturnOnly | AdjustMixingThenReturn | AdjustReturnThenMixing | None}, Adjust Zone Infiltration {AddInfiltration | AdjustInfiltration | None}, Infiltration Zones {MixingSourceZonesOnly | AllZones}
 Zone Air Mass Flow Balance Simulation, No,N/A,N/A,N/A
! <HVACSystemRootFindingAlgorithm>, Value {RegulaFalsi | Bisection | BisectionThenRegulaFalsi | RegulaFalsiThenBisection}
 HVACSystemRootFindingAlgorithm, RegulaFalsi
! <Environment:Site Atmospheric Variation>,Wind Speed Profile Exponent {},Wind Speed Profile Boundary Layer Thickness {m},Air Temperature Gradient Coefficient {K/m}
Environment:Site Atmospheric Variation,0.220,370.000,6.500000E-003
! <Shadowing/Sun Position Calculations Annual Simulations>, Shading Calculation Method, Shading Calculation Update Frequency Method, Shading Calculation Update Frequency {days}, Maximum Figures in Shadow Overlap Calculations {}, Polygon Clipping Algorithm, Pixel Counting Resolution, Sky Diffuse Modeling Algorithm, Output External Shading Calculation Results, Disable Self-Shading Within Shading Zone Groups, Disable Self-Shading From Shading Zone Groups to Other Zones
Shadowing/Sun Position Calculations Annual Simulations,PolygonClipping,Periodic,20,15000,SutherlandHodgman,512,SimpleSkyDiffuseModeling,No,No,No
! <Surface Geometry>,Starting Corner,Vertex Input Direction,Coordinate System,Daylight Reference Point Coordinate System,Rectangular (Simple) Surface Coordinate System
 Surface Geometry,UpperLeftCorner,Counterclockwise,RelativeCoordinateSystem,RelativeCoordinateSystem,RelativeToZoneOrigin
! <Surface Heat Transfer Algorithm>, Value {CTF - ConductionTransferFunction | EMPD - MoisturePenetrationDepthConductionTransferFunction | CondFD - ConductionFiniteDifference | HAMT - CombinedHeatAndMoistureFiniteElement} - Description,Inside Surface Max Temperature Limit{C}, Surface Convection Coefficient Lower Limit {W/m2-K}, Surface Convection Coefficient Upper Limit {W/m2-K}
Surface Heat Transfer Algorithm, CTF - ConductionTransferFunction,200,0.10,1000.0
! <Shading Summary>, Number of Fixed Detached Shades, Number of Building Detached Shades, Number of Attached Shades
 Shading Summary,0,0,0
! <Zone Summary>, Number of Zones, Number of Zone Surfaces, Number of SubSurfaces
 Zone Summary,42,462,168
! <Zone Information>,Zone Name,North Axis {deg},Origin X-Coordinate {m},Origin Y-Coordinate {m},Origin Z-Coordinate {m},Centroid X-Coordinate {m},Centroid Y-Coordinate {m},Centroid Z-Coordinate {m},Type,Zone Multiplier,Zone List Multiplier,Minimum X {m},Maximum X {m},Minimum Y {m},Maximum Y {m},Minimum Z {m},Maximum Z {m},Ceiling Height {m},Volume {m3},Zone Inside Convection Algorithm {Simple-Detailed-CeilingDiffuser-TrombeWall},Zone Outside Convection Algorithm {Simple-Detailed-Tarp-MoWitt-DOE-2-BLAST}, Floor Area {m2},Exterior Gross Wall Area {m2},Exterior Net Wall Area {m2},Exterior Window Area {m2}, Number of Surfaces, Number of SubSurfaces, Number of Shading SubSurfaces,  Part of Total Building Area
 Zone Information, CONFERENCE_0,0.0,0.00,0.00,0.00,54.12,52.61,1.50,1,1,1,51.65,56.58,48.62,56.60,0.00,3.00,3.00,114.23,TARP,DOE-2,38.08,76.28,53.32,22.96,6,4,0,Yes
 Zone Information, MECHANICAL_0,0.0,0.00,0.00,0.00,-15.49,-81.07,1.50,1,1,1,-18.41,-12.58,-86.74,-75.41,0.00,3.00,3.00,193.25,TARP,DOE-2,64.42,101.79,71.16,30.63,6,4,0,Yes
 Zone Information, OFFICE_OPEN_0,0.0,0.00,0.00,0.00,-15.05,15.84,1.50,1,1,1,-19.59,-10.50,9.45,22.23,0.00,3.00,3.00,342.07,TARP,DOE-2,114.02,130.04,90.90,39.14,6,4,0,Yes
 Zone Information, STORAGE_0,0.0,0.00,0.00,0.00,-46.09,26.28,1.50,1,1,1,-48.82,-43.36,22.12,30.44,0.00,3.00,3.00,132.24,TARP,DOE-2,44.08,81.49,56.97,24.53,6,4,0,Yes
 Zone Information, LOBBY_1,0.0,0.00,0.00,0.00,55.35,11.67,4.50,1,1,1,51.07,59.63,3.35,19.98,3.00,6.00,3.00,419.71,TARP,DOE-2,139.90,149.96,104.83,45.13,6,4,0,Yes
 Zone Information, CONFERENCE_1,0.0,0.00,0.00,0.00,6.22,-68.73,4.50,1,1,1,3.35,9.09,-73.91,-63.55,3.00,6.00,3.00,173.43,TARP,DOE-2,57.81,95.37,66.67,28.70,6,4,0,Yes
 Zone Information, BREAK_ROOM_1,0.0,0.00,0.00,0.00,-42.54,58.01,4.50,1,1,1,-45.84,-39.23,53.27,62.74,3.00,6.00,3.00,182.72,TARP,DOE-2,60.91,95.21,66.56,28.65,6,4,0,Yes
 Zone Information, OFFICE_PRIVATE_1,0.0,0.00,0.00,0.00,-3.95E-003,-16.96,4.50,1,1,1,-2.86,2.85,-20.11,-13.82,3.00,6.00,3.00,104.19,TARP,DOE-2,34.73,70.80,49.49,21.31,6,4,0,Yes
 Zone Information, CONFERENCE_2,0.0,0.00,0.00,0.00,-9.81,-45.51,7.50,1,1,1,-13.52,-6.10,-52.05,-38.96,6.00,9.00,3.00,285.29,TARP,DOE-2,95.10,121.86,85.18,36.67,6,4,0,Yes
 Zone Information, BREAK_ROOM_2,0.0,0.00,0.00,0.00,-45.39,41.39,7.50,1,1,1,-48.60,-42.18,36.22,46.57,6.00,9.00,3.00,194.34,TARP,DOE-2,64.78,99.42,69.50,29.92,6,4,0,Yes
 Zone Information, MECHANICAL_2,0.0,0.00,0.00,0.00,22.25,-97.54,7.50,1,1,1,20.39,24.11,-101.20,-93.89,6.00,9.00,3.00,78.29,TARP,DOE-2,26.10,64.98,45.42,19.56,6,4,0,Yes
 Zone Information, OFFICE_OPEN_2,0.0,0.00,0.00,0.00,-20.43,-60.30,7.50,1,1,1,-30.21,-10.65,-71.54,-49.05,6.00,9.00,3.00,1307.09,TARP,DOE-2,435.70,251.10,175.53,75.57,6,4,0,Yes
 Zone Information, CONFERENCE_3,0.0,0.00,0.00,0.00,-24.30,-42.75,10.50,1,1,1,-27.70,-20.90,-48.99,-36.50,9.00,12.00,3.00,249.17,TARP,DOE-2,83.06,114.56,80.08,34.48,6,4,0,Yes
 Zone Information, MECHANICAL_3,0.0,0.00,0.00,0.00,9.84,-80.29,10.50,1,1,1,6.05,13.62,-84.66,-75.93,9.00,12.00,3.00,193.69,TARP,DOE-2,64.56,96.67,67.58,29.09,6,4,0,Yes
 Zone Information, OFFICE_OPEN_3,0.0,0.00,0.00,0.00,23.59,21.60,10.50,1,1,1,17.23,29.95,14.03,29.17,9.00,12.00,3.00,569.24,TARP,DOE-2,189.75,165.93,115.99,49.94,6,4,0,Yes
 Zone Information, STORAGE_3,0.0,0.00,0.00,0.00,-28.95,-70.45,10.50,1,1,1,-31.03,-26.87,-73.87,-67.03,9.00,12.00,3.00,82.07,TARP,DOE-2,27.36,64.79,45.29,19.50,6,4,0,Yes
 Zone Information, LOBBY_4,0.0,0.00,0.00,0.00,-18.68,-65.30,13.50,1,1,1,-24.36,-13.01,-74.19,-56.41,12.00,15.00,3.00,596.33,TARP,DOE-2,198.78,173.53,121.31,52.23,6,4,0,Yes
 Zone Information, CONFERENCE_4,0.0,0.00,0.00,0.00,13.05,11.39,13.50,1,1,1,9.63,16.47,6.84,15.94,12.00,15.00,3.00,181.78,TARP,DOE-2,60.59,94.40,65.99,28.41,6,4,0,Yes
 Zone Information, BREAK_ROOM_4,0.0,0.00,0.00,0.00,47.70,-60.13,13.50,1,1,1,44.70,50.71,-65.68,-54.58,12.00,15.00,3.00,194.96,TARP,DOE-2,64.99,101.44,70.91,30.53,6,4,0,Yes
 Zone Information, MECHANICAL_4,0.0,0.00,0.00,0.00,11.55,-24.19,13.50,1,1,1,8.16,14.95,-29.44,-18.94,12.00,15.00,3.00,208.67,TARP,DOE-2,69.56,102.52,71.67,30.86,6,4,0,Yes
 Zone Information, OFFICE_OPEN_4,0.0,0.00,0.00,0.00,23.04,-60.94,13.50,1,1,1,14.63,31.45,-75.84,-46.03,12.00,15.00,3.00,1490.48,TARP,DOE-2,496.83,278.60,194.75,83.85,6,4,0,Yes
 Zone Information, CONFERENCE_5,0.0,0.00,0.00,0.00,32.38,-42.52,16.50,1,1,1,28.63,36.13,-47.07,-37.97,15.00,18.00,3.00,199.51,TARP,DOE-2,66.50,98.33,68.74,29.59,6,4,0,Yes
 Zone Information, BREAK_ROOM_5,0.0,0.00,0.00,0.00,8.00,30.41,16.50,1,1,1,4.76,11.24,25.00,35.82,15.00,18.00,3.00,205.16,TARP,DOE-2,68.39,102.59,71.72,30.88,6,4,0,Yes
 Zone Information, MECHANICAL_5,0.0,0.00,0.00,0.00,12.66,-53.04,16.50,1,1,1,9.03,16.28,-58.01,-48.06,15.00,18.00,3.00,211.44,TARP,DOE-2,70.48,102.04,71.33,30.71,6,4,0,Yes
 Zone Information, OFFICE_PRIVATE_5,0.0,0.00,0.00,0.00,11.56,65.69,16.50,1,1,1,8.97,14.16,62.46,68.91,15.00,18.00,3.00,96.96,TARP,DOE-2,32.32,68.64,47.98,20.66,6,4,0,Yes
 Zone Information, OFFICE_PRIVATE_6,0.0,0.00,0.00,0.00,31.82,65.51,19.50,1,1,1,29.48,34.16,62.04,68.98,18.00,21.00,3.00,93.82,TARP,DOE-2,31.27,68.47,47.86,20.61,6,4,0,Yes
 Zone Information, LOBBY_7,0.0,0.00,0.00,0.00,41.78,35.12,22.50,1,1,1,37.14,46.43,28.23,42.01,21.00,24.00,3.00,377.27,TARP,DOE-2,125.76,137.24,95.93,41.30,6,4,0,Yes
 Zone Information, BREAK_ROOM_7,0.0,0.00,0.00,0.00,-39.17,-44.84,22.50,1,1,1,-41.64,-36.69,-47.36,-42.33,21.00,24.00,3.00,71.90,TARP,DOE-2,23.97,58.75,41.07,17.68,6,4,0,Yes
 Zone Information, MECHANICAL_7,0.0,0.00,0.00,0.00,10.72,-65.05,22.50,1,1,1,6.92,14.52,-69.76,-60.35,21.00,24.00,3.00,209.25,TARP,DOE-2,69.75,100.81,70.47,30.34,6,4,0,Yes
 Zone Information, OFFICE_OPEN_7,0.0,0.00,0.00,0.00,-19.28,-58.13,22.50,1,1,1,-27.31,-11.25,-66.46,-49.79,21.00,24.00,3.00,793.48,TARP,DOE-2,264.49,195.19,136.45,58.75,6,4,0,Yes
 Zone Information, OFFICE_PRIVATE_7,0.0,0.00,0.00,0.00,8.88,62.26,22.50,1,1,1,5.95,11.81,58.69,65.82,21.00,24.00,3.00,121.26,TARP,DOE-2,40.42,76.67,53.60,23.08,6,4,0,Yes
 Zone Information, STORAGE_7,0.0,0.00,0.00,0.00,49.67,14.08,22.50,1,1,1,47.36,51.98,11.27,16.89,21.00,24.00,3.00,74.94,TARP,DOE-2,24.98,60.27,42.13,18.14,6,4,0,Yes
 Zone Information, CONFERENCE_8,0.0,0.00,0.00,0.00,-22.06,-33.77,25.50,1,1,1,-24.32,-19.81,-38.03,-29.51,24.00,27.00,3.00,111.33,TARP,DOE-2,37.11,76.94,53.78,23.16,6,4,0,Yes
 Zone Information, BREAK_ROOM_8,0.0,0.00,0.00,0.00,-2.23,6.55,25.50,1,1,1,-5.61,1.14,1.19,11.91,24.00,27.00,3.00,211.84,TARP,DOE-2,70.61,103.60,72.42,31.18,6,4,0,Yes
 Zone Information, MECHANICAL_8,0.0,0.00,0.00,0.00,9.82,-51.93,25.50,1,1,1,5.73,13.92,-56.84,-47.03,24.00,27.00,3.00,235.34,TARP,DOE-2,78.45,106.73,74.61,32.12,6,4,0,Yes
 Zone Information, OFFICE_OPEN_8,0.0,0.00,0.00,0.00,-30.97,31.75,25.50,1,1,1,-36.60,-25.34,23.44,40.06,24.00,27.00,3.00,552.81,TARP,DOE-2,184.27,166.04,116.07,49.97,6,4,0,Yes
 Zone Information, STORAGE_8,0.0,0.00,0.00,0.00,39.51,54.26,25.50,1,1,1,36.67,42.36,49.94,58.57,24.00,27.00,3.00,142.97,TARP,DOE-2,47.66,84.69,59.20,25.49,6,4,0,Yes
 Zone Information, CONFERENCE_9,0.0,0.00,0.00,0.00,19.61,-27.65,28.50,1,1,1,16.15,23.08,-31.74,-23.57,27.00,30.00,3.00,165.37,TARP,DOE-2,55.12,89.41,62.50,26.91,6,4,0,Yes
 Zone Information, BREAK_ROOM_9,0.0,0.00,0.00,0.00,7.53,6.35,28.50,1,1,1,3.72,11.33,1.12,11.57,27.00,30.00,3.00,233.05,TARP,DOE-2,77.68,107.15,74.90,32.25,6,4,0,Yes
 Zone Information, MECHANICAL_9,0.0,0.00,0.00,0.00,22.82,23.38,28.50,1,1,1,20.28,25.35,18.64,28.13,27.00,30.00,3.00,140.12,TARP,DOE-2,46.71,86.20,60.26,25.94,6,4,0,Yes
 Zone Information, OFFICE_OPEN_9,0.0,0.00,0.00,0.00,-27.46,61.42,28.50,1,1,1,-32.72,-22.20,52.76,70.09,27.00,30.00,3.00,538.59,TARP,DOE-2,179.53,165.88,115.96,49.92,6,4,0,Yes
 Zone Information, OFFICE_PRIVATE_9,0.0,0.00,0.00,0.00,-50.14,39.28,28.50,1,1,1,-53.15,-47.13,35.58,42.98,27.00,30.00,3.00,129.59,TARP,DOE-2,43.20,79.30,55.43,23.87,6,4,0,Yes
! <Zone Internal Gains Nominal>,Zone Name, Floor Area {m2},# Occupants,Area per Occupant {m2/person},Occupant per Area {person/m2},Interior Lighting {W/m2},Electric Load {W/m2},Gas Load {W/m2},Other Load {W/m2},Hot Water Eq {W/m2},Steam Equipment {W/m2},Sum Loads per Area {W/m2},Outdoor Controlled Baseboard Heat
 Zone Internal Gains Nominal, CONFERENCE_0,38.08,7.0,5.439,0.184,10.800,8.100,0.000,0.000,0.000,0.000,18.900,No
 Zone Internal Gains Nominal, MECHANICAL_0,64.42,1.0,64.416,1.552E-002,5.400,0.000,0.000,0.000,0.000,0.000,5.400,No
 Zone Internal Gains Nominal, OFFICE_OPEN_0,114.02,5.0,22.805,4.385E-002,10.800,8.100,0.000,0.000,0.000,0.000,18.900,No
 Zone Internal Gains Nominal, STORAGE_0,44.08,1.0,44.082,2.269E-002,5.400,1.100,0.000,0.000,0.000,0.000,6.500,No
 Zone Internal Gains Nominal, LOBBY_1,139.90,6.0,23.317,4.289E-002,12.900,3.200,0.000,0.000,0.000,0.000,16.100,No
 Zone Internal Gains Nominal, CONFERENCE_1,57.81,11.0,5.255,0.190,10.800,8.100,0.000,0.000,0.000,0.000,18.900,No
 Zone Internal Gains Nominal, BREAK_ROOM_1,60.91,6.0,10.151,9.851E-002,8.100,15.000,0.000,0.000,0.000,0.000,23.100,No
 Zone Internal Gains Nominal, OFFICE_PRIVATE_1,34.73,1.0,34.731,2.879E-002,10.800,8.100,0.000,0.000,0.000,0.000,18.900,No
 Zone Internal Gains Nominal, CONFERENCE_2,95.10,19.0,5.005,0.200,10.800,8.100,0.000,0.000,0.000,0.000,18.900,No
 Zone Internal Gains Nominal, BREAK_ROOM_2,64.78,6.0,10.797,9.262E-002,8.100,15.000,0.000,0.000,0.000,0.000,23.100,No
 Zone Internal Gains Nominal, MECHANICAL_2,26.10,1.0,26.098,3.832E-002,5.400,0.000,0.000,0.000,0.000,0.000,5.400,No
 Zone Internal Gains Nominal, OFFICE_OPEN_2,435.70,21.0,20.747,4.820E-002,10.800,8.100,0.000,0.000,0.000,0.000,18.900,No
 Zone Internal Gains Nominal, CONFERENCE_3,83.06,16.0,5.191,0.193,10.800,8.100,0.000,0.000,0.000,0.000,18.900,No
 Zone Internal Gains Nominal, MECHANICAL_3,64.56,1.0,64.563,1.549E-002,5.400,0.000,0.000,0.000,0.000,0.000,5.400,No
 Zone Internal Gains Nominal, OFFICE_OPEN_3,189.75,9.0,21.083,4.743E-002,10.800,8.100,0.000,0.000,0.000,0.000,18.900,No
 Zone Internal Gains Nominal, STORAGE_3,27.36,1.0,27.355,3.656E-002,5.400,1.100,0.000,0.000,0.000,0.000,6.500,No
 Zone Internal Gains Nominal, LOBBY_4,198.78,9.0,22.086,4.528E-002,12.900,3.200,0.000,0.000,0.000,0.000,16.100,No
 Zone Internal Gains Nominal, CONFERENCE_4,60.59,12.0,5.049,0.198,10.800,8.100,0.000,0.000,0.000,0.000,18.900,No
 Zone Internal Gains Nominal, BREAK_ROOM_4,64.99,6.0,10.831,9.233E-002,8.100,15.000,0.000,0.000,0.000,0.000,23.100,No
 Zone Internal Gains Nominal, MECHANICAL_4,69.56,1.0,69.557,1.438E-002,5.400,0.000,0.000,0.000,0.000,0.000,5.400,No
 Zone Internal Gains Nominal, OFFICE_OPEN_4,496.83,24.0,20.701,4.831E-002,10.800,8.100,0.000,0.000,0.000,0.000,18.900,No
 Zone Internal Gains Nominal, CONFERENCE_5,66.50,13.0,5.116,0.195,10.800,8.100,0.000,0.000,0.000,0.000,18.900,No
 Zone Internal Gains Nominal, BREAK_ROOM_5,68.39,6.0,11.398,8.774E-002,8.100,15.000,0.000,0.000,0.000,0.000,23.100,No
 Zone Internal Gains Nominal, MECHANICAL_5,70.48,1.0,70.481,1.419E-002,5.400,0.000,0.000,0.000,0.000,0.000,5.400,No
 Zone Internal Gains Nominal, OFFICE_PRIVATE_5,32.32,1.0,32.320,3.094E-002,10.800,8.100,0.000,0.000,0.000,0.000,18.900,No
 Zone Internal Gains Nominal, OFFICE_PRIVATE_6,31.27,1.0,31.272,3.198E-002,10.800,8.100,0.000,0.000,0.000,0.000,18.900,No
 Zone Internal Gains Nominal, LOBBY_7,125.76,6.0,20.960,4.771E-002,12.900,3.200,0.000,0.000,0.000,0.000,16.100,No
 Zone Internal Gains Nominal, BREAK_ROOM_7,23.97,2.0,11.983,8.345E-002,8.100,15.000,0.000,0.000,0.000,0.000,23.100,No
 Zone Internal Gains Nominal, MECHANICAL_7,69.75,1.0,69.751,1.434E-002,5.400,0.000,0.000,0.000,0.000,0.000,5.400,No
 Zone Internal Gains Nominal, OFFICE_OPEN_7,264.49,13.0,20.346,4.915E-002,10.800,8.100,0.000,0.000,0.000,0.000,18.900,No
 Zone Internal Gains Nominal, OFFICE_PRIVATE_7,40.42,2.0,20.210,4.948E-002,10.800,8.100,0.000,0.000,0.000,0.000,18.900,No
 Zone Internal Gains Nominal, STORAGE_7,24.98,1.0,24.981,4.003E-002,5.400,1.100,0.000,0.000,0.000,0.000,6.500,No
 Zone Internal Gains Nominal, CONFERENCE_8,37.11,7.0,5.301,0.189,10.800,8.100,0.000,0.000,0.000,0.000,18.900,No
 Zone Internal Gains Nominal, BREAK_ROOM_8,70.61,7.0,10.088,9.913E-002,8.100,15.000,0.000,0.000,0.000,0.000,23.100,No
 Zone Internal Gains Nominal, MECHANICAL_8,78.45,1.0,78.448,1.275E-002,5.400,0.000,0.000,0.000,0.000,0.000,5.400,No
 Zone Internal Gains Nominal, OFFICE_OPEN_8,184.27,9.0,20.475,4.884E-002,10.800,8.100,0.000,0.000,0.000,0.000,18.900,No
 Zone Internal Gains Nominal, STORAGE_8,47.66,1.0,47.655,2.098E-002,5.400,1.100,0.000,0.000,0.000,0.000,6.500,No
 Zone Internal Gains Nominal, CONFERENCE_9,55.12,11.0,5.011,0.200,10.800,8.100,0.000,0.000,0.000,0.000,18.900,No
 Zone Internal Gains Nominal, BREAK_ROOM_9,77.68,7.0,11.098,9.011E-002,8.100,15.000,0.000,0.000,0.000,0.000,23.100,No
 Zone Internal Gains Nominal, MECHANICAL_9,46.71,1.0,46.707,2.141E-002,5.400,0.000,0.000,0.000,0.000,0.000,5.400,No
 Zone Internal Gains Nominal, OFFICE_OPEN_9,179.53,8.0,22.441,4.456E-002,10.800,8.100,0.000,0.000,0.000,0.000,18.900,No
 Zone Internal Gains Nominal, OFFICE_PRIVATE_9,43.20,2.0,21.598,4.630E-002,10.800,8.100,0.000,0.000,0.000,0.000,18.900,No
! <People Internal Gains Nominal>,Name,Schedule Name,Zone Name,Zone Floor Area {m2},# Zone Occupants,Number of People {},People/Floor Area {person/m2},Floor Area per person {m2/person},Fraction Radiant,Fraction Convected,Sensible Fraction Calculation,Activity level,ASHRAE 55 Warnings,Carbon Dioxide Generation Rate,Minimum Number of People for All Day Types,Maximum Number of People for All Day Types,Minimum Number of People for Weekdays, Maximum Number of People for Weekdays, Minimum Number of People for Weekends/Holidays, Maximum Number of People for Weekends /Holidays,Minimum Number of People for Summer Design Days, Maximum Number of People for Summer Design Days,Minimum Number of People for Winter Design Days, Maximum Number of People for Winter Design Days
 People Internal Gains Nominal, CONFERENCE_0_PEOPLE,CONFERENCE_OCCUPANCY,CONFERENCE_0,38.08,7.0,7.0,0.184,5.439,0.300,0.700,0.100,CONFERENCE_ACTIVITY,No,3.8200E-008,0.0,7.0,0.0,7.0,0.0,0.7,0.0,0.0,0.0,0.0,
 People Internal Gains Nominal, MECHANICAL_0_PEOPLE,MECHANICAL_OCCUPANCY,MECHANICAL_0,64.42,1.0,1.0,1.552E-002,64.416,0.300,0.700,0.100,MECHANICAL_ACTIVITY,No,3.8200E-008,0.2,0.2,0.2,0.2,0.2,0.2,0.2,0.2,0.2,0.2,
 People Internal Gains Nominal, OFFICE_OPEN_0_PEOPLE,OFFICE_OPEN_OCCUPANCY,OFFICE_OPEN_0,114.02,5.0,5.0,4.385E-002,22.805,0.300,0.700,0.100,OFFICE_OPEN_ACTIVITY,No,3.8200E-008,0.0,5.0,0.0,5.0,0.0,0.5,0.0,0.0,0.0,0.0,
 People Internal Gains Nominal, STORAGE_0_PEOPLE,STORAGE_OCCUPANCY,STORAGE_0,44.08,1.0,1.0,2.269E-002,44.082,0.300,0.700,0.100,STORAGE_ACTIVITY,No,3.8200E-008,0.2,0.2,0.2,0.2,0.2,0.2,0.2,0.2,0.2,0.2,
 People Internal Gains Nominal, LOBBY_1_PEOPLE,LOBBY_OCCUPANCY,LOBBY_1,139.90,6.0,6.0,4.289E-002,23.317,0.300,0.700,0.100,LOBBY_ACTIVITY,No,3.8200E-008,1.2,1.2,1.2,1.2,1.2,1.2,1.2,1.2,1.2,1.2,
 People Internal Gains Nominal, CONFERENCE_1_PEOPLE,CONFERENCE_OCCUPANCY,CONFERENCE_1,57.81,11.0,11.0,0.190,5.255,0.300,0.700,0.100,CONFERENCE_ACTIVITY,No,3.8200E-008,0.0,11.0,0.0,11.0,0.0,1.1,0.0,0.0,0.0,0.0,
 People Internal Gains Nominal, BREAK_ROOM_1_PEOPLE,BREAK_ROOM_OCCUPANCY,BREAK_ROOM_1,60.91,6.0,6.0,9.851E-002,10.151,0.300,0.700,0.100,BREAK_ROOM_ACTIVITY,No,3.8200E-008,1.2,1.2,1.2,1.2,1.2,1.2,1.2,1.2,1.2,1.2,
 People Internal Gains Nominal, OFFICE_PRIVATE_1_PEOPLE,OFFICE_OPEN_OCCUPANCY,OFFICE_PRIVATE_1,34.73,1.0,1.0,2.879E-002,34.731,0.300,0.700,0.100,OFFICE_OPEN_ACTIVITY,No,3.8200E-008,0.0,1.0,0.0,1.0,0.0,0.1,0.0,0.0,0.0,0.0,
 People Internal Gains Nominal, CONFERENCE_2_PEOPLE,CONFERENCE_OCCUPANCY,CONFERENCE_2,95.10,19.0,19.0,0.200,5.005,0.300,0.700,0.100,CONFERENCE_ACTIVITY,No,3.8200E-008,0.0,19.0,0.0,19.0,0.0,1.9,0.0,0.0,0.0,0.0,
 People Internal Gains Nominal, BREAK_ROOM_2_PEOPLE,BREAK_ROOM_OCCUPANCY,BREAK_ROOM_2,64.78,6.0,6.0,9.262E-002,10.797,0.300,0.700,0.100,BREAK_ROOM_ACTIVITY,No,3.8200E-008,1.2,1.2,1.2,1.2,1.2,1.2,1.2,1.2,1.2,1.2,
 People Internal Gains Nominal, MECHANICAL_2_PEOPLE,MECHANICAL_OCCUPANCY,MECHANICAL_2,26.10,1.0,1.0,3.832E-002,26.098,0.300,0.700,0.100,MECHANICAL_ACTIVITY,No,3.8200E-008,0.2,0.2,0.2,0.2,0.2,0.2,0.2,0.2,0.2,0.2,
 People Internal Gains Nominal, OFFICE_OPEN_2_PEOPLE,OFFICE_OPEN_OCCUPANCY,OFFICE_OPEN_2,435.70,21.0,21.0,4.820E-002,20.747,0.300,0.700,0.100,OFFICE_OPEN_ACTIVITY,No,3.8200E-008,0.0,21.0,0.0,21.0,0.0,2.1,0.0,0.0,0.0,0.0,
 People Internal Gains Nominal, CONFERENCE_3_PEOPLE,CONFERENCE_OCCUPANCY,CONFERENCE_3,83.06,16.0,16.0,0.193,5.191,0.300,0.700,0.100,CONFERENCE_ACTIVITY,No,3.8200E-008,0.0,16.0,0.0,16.0,0.0,1.6,0.0,0.0,0.0,0.0,
 People Internal Gains Nominal, MECHANICAL_3_PEOPLE,MECHANICAL_OCCUPANCY,MECHANICAL_3,64.56,1.0,1.0,1.549E-002,64.563,0.300,0.700,0.100,MECHANICAL_ACTIVITY,No,3.8200E-008,0.2,0.2,0.2,0.2,0.2,0.2,0.2,0.2,0.2,0.2,
 People Internal Gains Nominal, OFFICE_OPEN_3_PEOPLE,OFFICE_OPEN_OCCUPANCY,OFFICE_OPEN_3,189.75,9.0,9.0,4.743E-002,21.083,0.300,0.700,0.100,OFFICE_OPEN_ACTIVITY,No,3.8200E-008,0.0,9.0,0.0,9.0,0.0,0.9,0.0,0.0,0.0,0.0,
 People Internal Gains Nominal, STORAGE_3_PEOPLE,STORAGE_OCCUPANCY,STORAGE_3,27.36,1.0,1.0,3.656E-002,27.355,0.300,0.700,0.100,STORAGE_ACTIVITY,No,3.8200E-008,0.2,0.2,0.2,0.2,0.2,0.2,0.2,0.2,0.2,0.2,
 People Internal Gains Nominal, LOBBY_4_PEOPLE,LOBBY_OCCUPANCY,LOBBY_4,198.78,9.0,9.0,4.528E-002,22.086,0.300,0.700,0.100,LOBBY_ACTIVITY,No,3.8200E-008,1.8,1.8,1.8,1.8,1.8,1.8,1.8,1.8,1.8,1.8,
 People Internal Gains Nominal, CONFERENCE_4_PEOPLE,CONFERENCE_OCCUPANCY,CONFERENCE_4,60.59,12.0,12.0,0.198,5.049,0.300,0.700,0.100,CONFERENCE_ACTIVITY,No,3.8200E-008,0.0,12.0,0.0,12.0,0.0,1.2,0.0,0.0,0.0,0.0,
 People Internal Gains Nominal, BREAK_ROOM_4_PEOPLE,BREAK_ROOM_OCCUPANCY,BREAK_ROOM_4,64.99,6.0,6.0,9.233E-002,10.831,0.300,0.700,0.100,BREAK_ROOM_ACTIVITY,No,3.8200E-008,1.2,1.2,1.2,1.2,1.2,1.2,1.2,1.2,1.2,1.2,
 People Internal Gains Nominal, MECHANICAL_4_PEOPLE,MECHANICAL_OCCUPANCY,MECHANICAL_4,69.56,1.0,1.0,1.438E-002,69.557,0.300,0.700,0.100,MECHANICAL_ACTIVITY,No,3.8200E-008,0.2,0.2,0.2,0.2,0.2,0.2,0.2,0.2,0.2,0.2,
 People Internal Gains Nominal, OFFICE_OPEN_4_PEOPLE,OFFICE_OPEN_OCCUPANCY,OFFICE_OPEN_4,496.83,24.0,24.0,4.831E-002,20.701,0.300,0.700,0.100,OFFICE_OPEN_ACTIVITY,No,3.8200E-008,0.0,24.0,0.0,24.0,0.0,2.4,0.0,0.0,0.0,0.0,
 People Internal Gains Nominal, CONFERENCE_5_PEOPLE,CONFERENCE_OCCUPANCY,CONFERENCE_5,66.50,13.0,13.0,0.195,5.116,0.300,0.700,0.100,CONFERENCE_ACTIVITY,No,3.8200E-008,0.0,13.0,0.0,13.0,0.0,1.3,0.0,0.0,0.0,0.0,
 People Internal Gains Nominal, BREAK_ROOM_5_PEOPLE,BREAK_ROOM_OCCUPANCY,BREAK_ROOM_5,68.39,6.0,6.0,8.774E-002,11.398,0.300,0.700,0.100,BREAK_ROOM_ACTIVITY,No,3.8200E-008,1.2,1.2,1.2,1.2,1.2,1.2,1.2,1.2,1.2,1.2,
 People Internal Gains Nominal, MECHANICAL_5_PEOPLE,MECHANICAL_OCCUPANCY,MECHANICAL_5,70.48,1.0,1.0,1.419E-002,70.481,0.300,0.700,0.100,MECHANICAL_ACTIVITY,No,3.8200E-008,0.2,0.2,0.2,0.2,0.2,0.2,0.2,0.2,0.2,0.2,
 People Internal Gains Nominal, OFFICE_PRIVATE_5_PEOPLE,OFFICE_OPEN_OCCUPANCY,OFFICE_PRIVATE_5,32.32,1.0,1.0,3.094E-002,32.320,0.300,0.700,0.100,OFFICE_OPEN_ACTIVITY,No,3.8200E-008,0.0,1.0,0.0,1.0,0.0,0.1,0.0,0.0,0.0,0.0,
 People Internal Gains Nominal, OFFICE_PRIVATE_6_PEOPLE,OFFICE_OPEN_OCCUPANCY,OFFICE_PRIVATE_6,31.27,1.0,1.0,3.198E-002,31.272,0.300,0.700,0.100,OFFICE_OPEN_ACTIVITY,No,3.8200E-008,0.0,1.0,0.0,1.0,0.0,0.1,0.0,0.0,0.0,0.0,
 People Internal Gains Nominal, LOBBY_7_PEOPLE,LOBBY_OCCUPANCY,LOBBY_7,125.76,6.0,6.0,4.771E-002,20.960,0.300,0.700,0.100,LOBBY_ACTIVITY,No,3.8200E-008,1.2,1.2,1.2,1.2,1.2,1.2,1.2,1.2,1.2,1.2,
 People Internal Gains Nominal, BREAK_ROOM_7_PEOPLE,BREAK_ROOM_OCCUPANCY,BREAK_ROOM_7,23.97,2.0,2.0,8.345E-002,11.983,0.300,0.700,0.100,BREAK_ROOM_ACTIVITY,No,3.8200E-008,0.4,0.4,0.4,0.4,0.4,0.4,0.4,0.4,0.4,0.4,
 People Internal Gains Nominal, MECHANICAL_7_PEOPLE,MECHANICAL_OCCUPANCY,MECHANICAL_7,69.75,1.0,1.0,1.434E-002,69.751,0.300,0.700,0.100,MECHANICAL_ACTIVITY,No,3.8200E-008,0.2,0.2,0.2,0.2,0.2,0.2,0.2,0.2,0.2,0.2,
 People Internal Gains Nominal, OFFICE_OPEN_7_PEOPLE,OFFICE_OPEN_OCCUPANCY,OFFICE_OPEN_7,264.49,13.0,13.0,4.915E-002,20.346,0.300,0.700,0.100,OFFICE_OPEN_ACTIVITY,No,3.8200E-008,0.0,13.0,0.0,13.0,0.0,1.3,0.0,0.0,0.0,0.0,
 People Internal Gains Nominal, OFFICE_PRIVATE_7_PEOPLE,OFFICE_OPEN_OCCUPANCY,OFFICE_PRIVATE_7,40.42,2.0,2.0,4.948E-002,20.210,0.300,0.700,0.100,OFFICE_OPEN_ACTIVITY,No,3.8200E-008,0.0,2.0,0.0,2.0,0.0,0.2,0.0,0.0,0.0,0.0,
 People Internal Gains Nominal, STORAGE_7_PEOPLE,STORAGE_OCCUPANCY,STORAGE_7,24.98,1.0,1.0,4.003E-002,24.981,0.300,0.700,0.100,STORAGE_ACTIVITY,No,3.8200E-008,0.2,0.2,0.2,0.2,0.2,0.2,0.2,0.2,0.2,0.2,
 People Internal Gains Nominal, CONFERENCE_8_PEOPLE,CONFERENCE_OCCUPANCY,CONFERENCE_8,37.11,7.0,7.0,0.189,5.301,0.300,0.700,0.100,CONFERENCE_ACTIVITY,No,3.8200E-008,0.0,7.0,0.0,7.0,0.0,0.7,0.0,0.0,0.0,0.0,
 People Internal Gains Nominal, BREAK_ROOM_8_PEOPLE,BREAK_ROOM_OCCUPANCY,BREAK_ROOM_8,70.61,7.0,7.0,9.913E-002,10.088,0.300,0.700,0.100,BREAK_ROOM_ACTIVITY,No,3.8200E-008,1.4,1.4,1.4,1.4,1.4,1.4,1.4,1.4,1.4,1.4,
 People Internal Gains Nominal, MECHANICAL_8_PEOPLE,MECHANICAL_OCCUPANCY,MECHANICAL_8,78.45,1.0,1.0,1.275E-002,78.448,0.300,0.700,0.100,MECHANICAL_ACTIVITY,No,3.8200E-008,0.2,0.2,0.2,0.2,0.2,0.2,0.2,0.2,0.2,0.2,
 People Internal Gains Nominal, OFFICE_OPEN_8_PEOPLE,OFFICE_OPEN_OCCUPANCY,OFFICE_OPEN_8,184.27,9.0,9.0,4.884E-002,20.475,0.300,0.700,0.100,OFFICE_OPEN_ACTIVITY,No,3.8200E-008,0.0,9.0,0.0,9.0,0.0,0.9,0.0,0.0,0.0,0.0,
 People Internal Gains Nominal, STORAGE_8_PEOPLE,STORAGE_OCCUPANCY,STORAGE_8,47.66,1.0,1.0,2.098E-002,47.655,0.300,0.700,0.100,STORAGE_ACTIVITY,No,3.8200E-008,0.2,0.2,0.2,0.2,0.2,0.2,0.2,0.2,0.2,0.2,
 People Internal Gains Nominal, CONFERENCE_9_PEOPLE,CONFERENCE_OCCUPANCY,CONFERENCE_9,55.12,11.0,11.0,0.200,5.011,0.300,0.700,0.100,CONFERENCE_ACTIVITY,No,3.8200E-008,0.0,11.0,0.0,11.0,0.0,1.1,0.0,0.0,0.0,0.0,
 People Internal Gains Nominal, BREAK_ROOM_9_PEOPLE,BREAK_ROOM_OCCUPANCY,BREAK_ROOM_9,77.68,7.0,7.0,9.011E-002,11.098,0.300,0.700,0.100,BREAK_ROOM_ACTIVITY,No,3.8200E-008,1.4,1.4,1.4,1.4,1.4,1.4,1.4,1.4,1.4,1.4,
 People Internal Gains Nominal, MECHANICAL_9_PEOPLE,MECHANICAL_OCCUPANCY,MECHANICAL_9,46.71,1.0,1.0,2.141E-002,46.707,0.300,0.700,0.100,MECHANICAL_ACTIVITY,No,3.8200E-008,0.2,0.2,0.2,0.2,0.2,0.2,0.2,0.2,0.2,0.2,
 People Internal Gains Nominal, OFFICE_OPEN_9_PEOPLE,OFFICE_OPEN_OCCUPANCY,OFFICE_OPEN_9,179.53,8.0,8.0,4.456E-002,22.441,0.300,0.700,0.100,OFFICE_OPEN_ACTIVITY,No,3.8200E-008,0.0,8.0,0.0,8.0,0.0,0.8,0.0,0.0,0.0,0.0,
 People Internal Gains Nominal, OFFICE_PRIVATE_9_PEOPLE,OFFICE_OPEN_OCCUPANCY,OFFICE_PRIVATE_9,43.20,2.0,2.0,4.630E-002,21.598,0.300,0.700,0.100,OFFICE_OPEN_ACTIVITY,No,3.8200E-008,0.0,2.0,0.0,2.0,0.0,0.2,0.0,0.0,0.0,0.0,
! <Lights Internal Gains Nominal>,Name,Schedule Name,Zone Name,Zone Floor Area {m2},# Zone Occupants,Lighting Level {W},Lights/Floor Area {W/m2},Lights per person {W/person},Fraction Return Air,Fraction Radiant,Fraction Short Wave,Fraction Convected,Fraction Replaceable,End-Use, Minimum Lighting Level for All Day Types {W},Maximum Lighting Level for All Day Types {W},Minimum Lighting Level for Weekdays {W}, Maximum Lighting Level for Weekdays {W},Minimum Lighting Level for Weekends/Holidays {W}, Maximum Lighting Level for Weekends /Holidays {W},Minimum Lighting Level for Summer Design Days {W}, Maximum Lighting Level for Summer Design Days {W},Minimum Lighting Level for Winter Design Days {W}, Maximum Lighting Level for Winter Design Days {W}
 Lights Internal Gains Nominal, CONFERENCE_0_LIGHTS,CONFERENCE_LIGHTING,CONFERENCE_0,38.08,7.0,411.215,10.800,58.745,0.000,0.300,0.200,0.500,1.000,General,0.000,411.215,41.122,411.2,0.000,82.243,0.000,0.000,0.000,0.000
 Lights Internal Gains Nominal, MECHANICAL_0_LIGHTS,MECHANICAL_LIGHTING,MECHANICAL_0,64.42,1.0,347.844,5.400,347.844,0.000,0.300,0.200,0.500,1.000,General,0.000,347.844,34.784,347.8,0.000,69.569,0.000,0.000,0.000,0.000
 Lights Internal Gains Nominal, OFFICE_OPEN_0_LIGHTS,OFFICE_OPEN_LIGHTING,OFFICE_OPEN_0,114.02,5.0,1231.455,10.800,246.291,0.000,0.300,0.200,0.500,1.000,General,0.000,1231.455,123.145,1231.5,0.000,246.291,0.000,0.000,0.000,0.000
 Lights Internal Gains Nominal, STORAGE_0_LIGHTS,STORAGE_LIGHTING,STORAGE_0,44.08,1.0,238.040,5.400,238.040,0.000,0.300,0.200,0.500,1.000,General,0.000,238.040,23.804,238.0,0.000,47.608,0.000,0.000,0.000,0.000
 Lights Internal Gains Nominal, LOBBY_1_LIGHTS,LOBBY_LIGHTING,LOBBY_1,139.90,6.0,1804.764,12.900,300.794,0.000,0.300,0.200,0.500,1.000,General,0.000,1804.764,180.476,1804.8,0.000,360.953,0.000,0.000,0.000,0.000
 Lights Internal Gains Nominal, CONFERENCE_1_LIGHTS,CONFERENCE_LIGHTING,CONFERENCE_1,57.81,11.0,624.347,10.800,56.759,0.000,0.300,0.200,0.500,1.000,General,0.000,624.347,62.435,624.3,0.000,124.869,0.000,0.000,0.000,0.000
 Lights Internal Gains Nominal, BREAK_ROOM_1_LIGHTS,BREAK_ROOM_LIGHTING,BREAK_ROOM_1,60.91,6.0,493.349,8.100,82.225,0.000,0.300,0.200,0.500,1.000,General,0.000,493.349,49.335,493.3,0.000,98.670,0.000,0.000,0.000,0.000
 Lights Internal Gains Nominal, OFFICE_PRIVATE_1_LIGHTS,OFFICE_OPEN_LIGHTING,OFFICE_PRIVATE_1,34.73,1.0,375.093,10.800,375.093,0.000,0.300,0.200,0.500,1.000,General,0.000,375.093,37.509,375.1,0.000,75.019,0.000,0.000,0.000,0.000
 Lights Internal Gains Nominal, CONFERENCE_2_LIGHTS,CONFERENCE_LIGHTING,CONFERENCE_2,95.10,19.0,1027.056,10.800,54.056,0.000,0.300,0.200,0.500,1.000,General,0.000,1027.056,102.706,1027.1,0.000,205.411,0.000,0.000,0.000,0.000
 Lights Internal Gains Nominal, BREAK_ROOM_2_LIGHTS,BREAK_ROOM_LIGHTING,BREAK_ROOM_2,64.78,6.0,524.726,8.100,87.454,0.000,0.300,0.200,0.500,1.000,General,0.000,524.726,52.473,524.7,0.000,104.945,0.000,0.000,0.000,0.000
 Lights Internal Gains Nominal, MECHANICAL_2_LIGHTS,MECHANICAL_LIGHTING,MECHANICAL_2,26.10,1.0,140.927,5.400,140.927,0.000,0.300,0.200,0.500,1.000,General,0.000,140.927,14.093,140.9,0.000,28.185,0.000,0.000,0.000,0.000
 Lights Internal Gains Nominal, OFFICE_OPEN_2_LIGHTS,OFFICE_OPEN_LIGHTING,OFFICE_OPEN_2,435.70,21.0,4705.515,10.800,224.072,0.000,0.300,0.200,0.500,1.000,General,0.000,4705.515,470.551,4705.5,0.000,941.103,0.000,0.000,0.000,0.000
 Lights Internal Gains Nominal, CONFERENCE_3_LIGHTS,CONFERENCE_LIGHTING,CONFERENCE_3,83.06,16.0,897.009,10.800,56.063,0.000,0.300,0.200,0.500,1.000,General,0.000,897.009,89.701,897.0,0.000,179.402,0.000,0.000,0.000,0.000
 Lights Internal Gains Nominal, MECHANICAL_3_LIGHTS,MECHANICAL_LIGHTING,MECHANICAL_3,64.56,1.0,348.640,5.400,348.640,0.000,0.300,0.200,0.500,1.000,General,0.000,348.640,34.864,348.6,0.000,69.728,0.000,0.000,0.000,0.000
 Lights Internal Gains Nominal, OFFICE_OPEN_3_LIGHTS,OFFICE_OPEN_LIGHTING,OFFICE_OPEN_3,189.75,9.0,2049.264,10.800,227.696,0.000,0.300,0.200,0.500,1.000,General,0.000,2049.264,204.926,2049.3,0.000,409.853,0.000,0.000,0.000,0.000
 Lights Internal Gains Nominal, STORAGE_3_LIGHTS,STORAGE_LIGHTING,STORAGE_3,27.36,1.0,147.718,5.400,147.718,0.000,0.300,0.200,0.500,1.000,General,0.000,147.718,14.772,147.7,0.000,29.544,0.000,0.000,0.000,0.000
 Lights Internal Gains Nominal, LOBBY_4_LIGHTS,LOBBY_LIGHTING,LOBBY_4,198.78,9.0,2564.203,12.900,284.911,0.000,0.300,0.200,0.500,1.000,General,0.000,2564.203,256.420,2564.2,0.000,512.841,0.000,0.000,0.000,0.000
 Lights Internal Gains Nominal, CONFERENCE_4_LIGHTS,CONFERENCE_LIGHTING,CONFERENCE_4,60.59,12.0,654.411,10.800,54.534,0.000,0.300,0.200,0.500,1.000,General,0.000,654.411,65.441,654.4,0.000,130.882,0.000,0.000,0.000,0.000
 Lights Internal Gains Nominal, BREAK_ROOM_4_LIGHTS,BREAK_ROOM_LIGHTING,BREAK_ROOM_4,64.99,6.0,526.399,8.100,87.733,0.000,0.300,0.200,0.500,1.000,General,0.000,526.399,52.640,526.4,0.000,105.280,0.000,0.000,0.000,0.000
 Lights Internal Gains Nominal, MECHANICAL_4_LIGHTS,MECHANICAL_LIGHTING,MECHANICAL_4,69.56,1.0,375.607,5.400,375.607,0.000,0.300,0.200,0.500,1.000,General,0.000,375.607,37.561,375.6,0.000,75.121,0.000,0.000,0.000,0.000
 Lights Internal Gains Nominal, OFFICE_OPEN_4_LIGHTS,OFFICE_OPEN_LIGHTING,OFFICE_OPEN_4,496.83,24.0,5365.745,10.800,223.573,0.000,0.300,0.200,0.500,1.000,General,0.000,5365.745,536.575,5365.7,0.000,1073.149,0.000,0.000,0.000,0.000
 Lights Internal Gains Nominal, CONFERENCE_5_LIGHTS,CONFERENCE_LIGHTING,CONFERENCE_5,66.50,13.0,718.247,10.800,55.250,0.000,0.300,0.200,0.500,1.000,General,0.000,718.247,71.825,718.2,0.000,143.649,0.000,0.000,0.000,0.000
 Lights Internal Gains Nominal, BREAK_ROOM_5_LIGHTS,BREAK_ROOM_LIGHTING,BREAK_ROOM_5,68.39,6.0,553.932,8.100,92.322,0.000,0.300,0.200,0.500,1.000,General,0.000,553.932,55.393,553.9,0.000,110.786,0.000,0.000,0.000,0.000
 Lights Internal Gains Nominal, MECHANICAL_5_LIGHTS,MECHANICAL_LIGHTING,MECHANICAL_5,70.48,1.0,380.598,5.400,380.598,0.000,0.300,0.200,0.500,1.000,General,0.000,380.598,38.060,380.6,0.000,76.120,0.000,0.000,0.000,0.000
 Lights Internal Gains Nominal, OFFICE_PRIVATE_5_LIGHTS,OFFICE_OPEN_LIGHTING,OFFICE_PRIVATE_5,32.32,1.0,349.057,10.800,349.057,0.000,0.300,0.200,0.500,1.000,General,0.000,349.057,34.906,349.1,0.000,69.811,0.000,0.000,0.000,0.000
 Lights Internal Gains Nominal, OFFICE_PRIVATE_6_LIGHTS,OFFICE_OPEN_LIGHTING,OFFICE_PRIVATE_6,31.27,1.0,337.740,10.800,337.740,0.000,0.300,0.200,0.500,1.000,General,0.000,337.740,33.774,337.7,0.000,67.548,0.000,0.000,0.000,0.000
 Lights Internal Gains Nominal, LOBBY_7_LIGHTS,LOBBY_LIGHTING,LOBBY_7,125.76,6.0,1622.278,12.900,270.380,0.000,0.300,0.200,0.500,1.000,General,0.000,1622.278,162.228,1622.3,0.000,324.456,0.000,0.000,0.000,0.000
 Lights Internal Gains Nominal, BREAK_ROOM_7_LIGHTS,BREAK_ROOM_LIGHTING,BREAK_ROOM_7,23.97,2.0,194.127,8.100,97.064,0.000,0.300,0.200,0.500,1.000,General,0.000,194.127,19.413,194.1,0.000,38.825,0.000,0.000,0.000,0.000
 Lights Internal Gains Nominal, MECHANICAL_7_LIGHTS,MECHANICAL_LIGHTING,MECHANICAL_7,69.75,1.0,376.658,5.400,376.658,0.000,0.300,0.200,0.500,1.000,General,0.000,376.658,37.666,376.7,0.000,75.332,0.000,0.000,0.000,0.000
 Lights Internal Gains Nominal, OFFICE_OPEN_7_LIGHTS,OFFICE_OPEN_LIGHTING,OFFICE_OPEN_7,264.49,13.0,2856.535,10.800,219.733,0.000,0.300,0.200,0.500,1.000,General,0.000,2856.535,285.654,2856.5,0.000,571.307,0.000,0.000,0.000,0.000
 Lights Internal Gains Nominal, OFFICE_PRIVATE_7_LIGHTS,OFFICE_OPEN_LIGHTING,OFFICE_PRIVATE_7,40.42,2.0,436.528,10.800,218.264,0.000,0.300,0.200,0.500,1.000,General,0.000,436.528,43.653,436.5,0.000,87.306,0.000,0.000,0.000,0.000
 Lights Internal Gains Nominal, STORAGE_7_LIGHTS,STORAGE_LIGHTING,STORAGE_7,24.98,1.0,134.900,5.400,134.900,0.000,0.300,0.200,0.500,1.000,General,0.000,134.900,13.490,134.9,0.000,26.980,0.000,0.000,0.000,0.000
 Lights Internal Gains Nominal, CONFERENCE_8_LIGHTS,CONFERENCE_LIGHTING,CONFERENCE_8,37.11,7.0,400.782,10.800,57.255,0.000,0.300,0.200,0.500,1.000,General,0.000,400.782,40.078,400.8,0.000,80.156,0.000,0.000,0.000,0.000
 Lights Internal Gains Nominal, BREAK_ROOM_8_LIGHTS,BREAK_ROOM_LIGHTING,BREAK_ROOM_8,70.61,7.0,571.972,8.100,81.710,0.000,0.300,0.200,0.500,1.000,General,0.000,571.972,57.197,572.0,0.000,114.394,0.000,0.000,0.000,0.000
 Lights Internal Gains Nominal, MECHANICAL_8_LIGHTS,MECHANICAL_LIGHTING,MECHANICAL_8,78.45,1.0,423.619,5.400,423.619,0.000,0.300,0.200,0.500,1.000,General,0.000,423.619,42.362,423.6,0.000,84.724,0.000,0.000,0.000,0.000
 Lights Internal Gains Nominal, OFFICE_OPEN_8_LIGHTS,OFFICE_OPEN_LIGHTING,OFFICE_OPEN_8,184.27,9.0,1990.128,10.800,221.125,0.000,0.300,0.200,0.500,1.000,General,0.000,1990.128,199.013,1990.1,0.000,398.026,0.000,0.000,0.000,0.000
 Lights Internal Gains Nominal, STORAGE_8_LIGHTS,STORAGE_LIGHTING,STORAGE_8,47.66,1.0,257.339,5.400,257.339,0.000,0.300,0.200,0.500,1.000,General,0.000,257.339,25.734,257.3,0.000,51.468,0.000,0.000,0.000,0.000
 Lights Internal Gains Nominal, CONFERENCE_9_LIGHTS,CONFERENCE_LIGHTING,CONFERENCE_9,55.12,11.0,595.350,10.800,54.123,0.000,0.300,0.200,0.500,1.000,General,0.000,595.350,59.535,595.3,0.000,119.070,0.000,0.000,0.000,0.000
 Lights Internal Gains Nominal, BREAK_ROOM_9_LIGHTS,BREAK_ROOM_LIGHTING,BREAK_ROOM_9,77.68,7.0,629.237,8.100,89.891,0.000,0.300,0.200,0.500,1.000,General,0.000,629.237,62.924,629.2,0.000,125.847,0.000,0.000,0.000,0.000
 Lights Internal Gains Nominal, MECHANICAL_9_LIGHTS,MECHANICAL_LIGHTING,MECHANICAL_9,46.71,1.0,252.216,5.400,252.216,0.000,0.300,0.200,0.500,1.000,General,0.000,252.216,25.222,252.2,0.000,50.443,0.000,0.000,0.000,0.000
 Lights Internal Gains Nominal, OFFICE_OPEN_9_LIGHTS,OFFICE_OPEN_LIGHTING,OFFICE_OPEN_9,179.53,8.0,1938.921,10.800,242.365,0.000,0.300,0.200,0.500,1.000,General,0.000,1938.921,193.892,1938.9,0.000,387.784,0.000,0.000,0.000,0.000
 Lights Internal Gains Nominal, OFFICE_PRIVATE_9_LIGHTS,OFFICE_OPEN_LIGHTING,OFFICE_PRIVATE_9,43.20,2.0,466.527,10.800,233.264,0.000,0.300,0.200,0.500,1.000,General,0.000,466.527,46.653,466.5,0.000,93.305,0.000,0.000,0.000,0.000
! <ElectricEquipment Internal Gains Nominal>,Name,Schedule Name,Zone Name,Zone Floor Area {m2},# Zone Occupants,Equipment Level {W},Equipment/Floor Area {W/m2},Equipment per person {W/person},Fraction Latent,Fraction Radiant,Fraction Lost,Fraction Convected,End-Use SubCategory,Minimum Equipment Level for All Day Types {W},Maximum Equipment Level for All Day Types {W},Minimum Equipment Level for Weekdays {W}, Maximum Equipment Level for Weekdays {W},Minimum Equipment Level for Weekends/Holidays {W}, Maximum Equipment Level for Weekends /Holidays {W},Minimum Equipment Level for Summer Design Days {W}, Maximum Equipment Level for Summer Design Days {W},Minimum Equipment Level for Winter Design Days {W}, Maximum Equipment Level for Winter Design Days {W}
 ElectricEquipment Internal Gains Nominal, CONFERENCE_0_EQUIPMENT,CONFERENCE_EQUIPMENT,CONFERENCE_0,38.08,7.0,308.412,8.100,44.059,0.100,0.200,0.000,0.700,General,0.000,246.729,92.523,246.729,0.000,92.523,0.000,0.000,0.000,0.000
 ElectricEquipment Internal Gains Nominal, MECHANICAL_0_EQUIPMENT,MECHANICAL_EQUIPMENT,MECHANICAL_0,64.42,1.0,0.000,0.000,0.000,0.100,0.200,0.000,0.700,General,0.000,0.000,0.000,0.000,0.000,0.000,0.000,0.000,0.000,0.000
 ElectricEquipment Internal Gains Nominal, OFFICE_OPEN_0_EQUIPMENT,OFFICE_OPEN_EQUIPMENT,OFFICE_OPEN_0,114.02,5.0,923.591,8.100,184.718,0.100,0.200,0.000,0.700,General,0.000,738.873,277.077,738.873,0.000,277.077,0.000,0.000,0.000,0.000
 ElectricEquipment Internal Gains Nominal, STORAGE_0_EQUIPMENT,STORAGE_EQUIPMENT,STORAGE_0,44.08,1.0,48.490,1.100,48.490,0.100,0.200,0.000,0.700,General,0.000,38.792,14.547,38.792,0.000,14.547,0.000,0.000,0.000,0.000
 ElectricEquipment Internal Gains Nominal, LOBBY_1_EQUIPMENT,LOBBY_EQUIPMENT,LOBBY_1,139.90,6.0,447.693,3.200,74.616,0.100,0.200,0.000,0.700,General,0.000,358.155,134.308,358.155,0.000,134.308,0.000,0.000,0.000,0.000
 ElectricEquipment Internal Gains Nominal, CONFERENCE_1_EQUIPMENT,CONFERENCE_EQUIPMENT,CONFERENCE_1,57.81,11.0,468.261,8.100,42.569,0.100,0.200,0.000,0.700,General,0.000,374.608,140.478,374.608,0.000,140.478,0.000,0.000,0.000,0.000
 ElectricEquipment Internal Gains Nominal, BREAK_ROOM_1_EQUIPMENT,BREAK_ROOM_EQUIPMENT,BREAK_ROOM_1,60.91,6.0,913.609,15.000,152.268,0.100,0.200,0.000,0.700,General,0.000,730.887,274.083,730.887,0.000,274.083,0.000,0.000,0.000,0.000
 ElectricEquipment Internal Gains Nominal, OFFICE_PRIVATE_1_EQUIPMENT,OFFICE_OPEN_EQUIPMENT,OFFICE_PRIVATE_1,34.73,1.0,281.320,8.100,281.320,0.100,0.200,0.000,0.700,General,0.000,225.056,84.396,225.056,0.000,84.396,0.000,0.000,0.000,0.000
 ElectricEquipment Internal Gains Nominal, CONFERENCE_2_EQUIPMENT,CONFERENCE_EQUIPMENT,CONFERENCE_2,95.10,19.0,770.292,8.100,40.542,0.100,0.200,0.000,0.700,General,0.000,616.234,231.088,616.234,0.000,231.088,0.000,0.000,0.000,0.000
 ElectricEquipment Internal Gains Nominal, BREAK_ROOM_2_EQUIPMENT,BREAK_ROOM_EQUIPMENT,BREAK_ROOM_2,64.78,6.0,971.715,15.000,161.953,0.100,0.200,0.000,0.700,General,0.000,777.372,291.515,777.372,0.000,291.515,0.000,0.000,0.000,0.000
 ElectricEquipment Internal Gains Nominal, MECHANICAL_2_EQUIPMENT,MECHANICAL_EQUIPMENT,MECHANICAL_2,26.10,1.0,0.000,0.000,0.000,0.100,0.200,0.000,0.700,General,0.000,0.000,0.000,0.000,0.000,0.000,0.000,0.000,0.000,0.000
 ElectricEquipment Internal Gains Nominal, OFFICE_OPEN_2_EQUIPMENT,OFFICE_OPEN_EQUIPMENT,OFFICE_OPEN_2,435.70,21.0,3529.136,8.100,168.054,0.100,0.200,0.000,0.700,General,0.000,2823.309,1058.741,2823.309,0.000,1058.741,0.000,0.000,0.000,0.000
 ElectricEquipment Internal Gains Nominal, CONFERENCE_3_EQUIPMENT,CONFERENCE_EQUIPMENT,CONFERENCE_3,83.06,16.0,672.757,8.100,42.047,0.100,0.200,0.000,0.700,General,0.000,538.205,201.827,538.205,0.000,201.827,0.000,0.000,0.000,0.000
 ElectricEquipment Internal Gains Nominal, MECHANICAL_3_EQUIPMENT,MECHANICAL_EQUIPMENT,MECHANICAL_3,64.56,1.0,0.000,0.000,0.000,0.100,0.200,0.000,0.700,General,0.000,0.000,0.000,0.000,0.000,0.000,0.000,0.000,0.000,0.000
 ElectricEquipment Internal Gains Nominal, OFFICE_OPEN_3_EQUIPMENT,OFFICE_OPEN_EQUIPMENT,OFFICE_OPEN_3,189.75,9.0,1536.948,8.100,170.772,0.100,0.200,0.000,0.700,General,0.000,1229.558,461.084,1229.558,0.000,461.084,0.000,0.000,0.000,0.000
 ElectricEquipment Internal Gains Nominal, STORAGE_3_EQUIPMENT,STORAGE_EQUIPMENT,STORAGE_3,27.36,1.0,30.091,1.100,30.091,0.100,0.200,0.000,0.700,General,0.000,24.073,9.027,24.073,0.000,9.027,0.000,0.000,0.000,0.000
 ElectricEquipment Internal Gains Nominal, LOBBY_4_EQUIPMENT,LOBBY_EQUIPMENT,LOBBY_4,198.78,9.0,636.081,3.200,70.676,0.100,0.200,0.000,0.700,General,0.000,508.865,190.824,508.865,0.000,190.824,0.000,0.000,0.000,0.000
 ElectricEquipment Internal Gains Nominal, CONFERENCE_4_EQUIPMENT,CONFERENCE_EQUIPMENT,CONFERENCE_4,60.59,12.0,490.808,8.100,40.901,0.100,0.200,0.000,0.700,General,0.000,392.647,147.242,392.647,0.000,147.242,0.000,0.000,0.000,0.000
 ElectricEquipment Internal Gains Nominal, BREAK_ROOM_4_EQUIPMENT,BREAK_ROOM_EQUIPMENT,BREAK_ROOM_4,64.99,6.0,974.813,15.000,162.469,0.100,0.200,0.000,0.700,General,0.000,779.851,292.444,779.851,0.000,292.444,0.000,0.000,0.000,0.000
 ElectricEquipment Internal Gains Nominal, MECHANICAL_4_EQUIPMENT,MECHANICAL_EQUIPMENT,MECHANICAL_4,69.56,1.0,0.000,0.000,0.000,0.100,0.200,0.000,0.700,General,0.000,0.000,0.000,0.000,0.000,0.000,0.000,0.000,0.000,0.000
 ElectricEquipment Internal Gains Nominal, OFFICE_OPEN_4_EQUIPMENT,OFFICE_OPEN_EQUIPMENT,OFFICE_OPEN_4,496.83,24.0,4024.309,8.100,167.680,0.100,0.200,0.000,0.700,General,0.000,3219.447,1207.293,3219.447,0.000,1207.293,0.000,0.000,0.000,0.000
 ElectricEquipment Internal Gains Nominal, CONFERENCE_5_EQUIPMENT,CONFERENCE_EQUIPMENT,CONFERENCE_5,66.50,13.0,538.685,8.100,41.437,0.100,0.200,0.000,0.700,General,0.000,430.948,161.606,430.948,0.000,161.606,0.000,0.000,0.000,0.000
 ElectricEquipment Internal Gains Nominal, BREAK_ROOM_5_EQUIPMENT,BREAK_ROOM_EQUIPMENT,BREAK_ROOM_5,68.39,6.0,1025.799,15.000,170.967,0.100,0.200,0.000,0.700,General,0.000,820.639,307.740,820.639,0.000,307.740,0.000,0.000,0.000,0.000
 ElectricEquipment Internal Gains Nominal, MECHANICAL_5_EQUIPMENT,MECHANICAL_EQUIPMENT,MECHANICAL_5,70.48,1.0,0.000,0.000,0.000,0.100,0.200,0.000,0.700,General,0.000,0.000,0.000,0.000,0.000,0.000,0.000,0.000,0.000,0.000
 ElectricEquipment Internal Gains Nominal, OFFICE_PRIVATE_5_EQUIPMENT,OFFICE_OPEN_EQUIPMENT,OFFICE_PRIVATE_5,32.32,1.0,261.793,8.100,261.793,0.100,0.200,0.000,0.700,General,0.000,209.434,78.538,209.434,0.000,78.538,0.000,0.000,0.000,0.000
 ElectricEquipment Internal Gains Nominal, OFFICE_PRIVATE_6_EQUIPMENT,OFFICE_OPEN_EQUIPMENT,OFFICE_PRIVATE_6,31.27,1.0,253.305,8.100,253.305,0.100,0.200,0.000,0.700,General,0.000,202.644,75.992,202.644,0.000,75.992,0.000,0.000,0.000,0.000
 ElectricEquipment Internal Gains Nominal, LOBBY_7_EQUIPMENT,LOBBY_EQUIPMENT,LOBBY_7,125.76,6.0,402.426,3.200,67.071,0.100,0.200,0.000,0.700,General,0.000,321.940,120.728,321.940,0.000,120.728,0.000,0.000,0.000,0.000
 ElectricEquipment Internal Gains Nominal, BREAK_ROOM_7_EQUIPMENT,BREAK_ROOM_EQUIPMENT,BREAK_ROOM_7,23.97,2.0,359.495,15.000,179.747,0.100,0.200,0.000,0.700,General,0.000,287.596,107.848,287.596,0.000,107.848,0.000,0.000,0.000,0.000
 ElectricEquipment Internal Gains Nominal, MECHANICAL_7_EQUIPMENT,MECHANICAL_EQUIPMENT,MECHANICAL_7,69.75,1.0,0.000,0.000,0.000,0.100,0.200,0.000,0.700,General,0.000,0.000,0.000,0.000,0.000,0.000,0.000,0.000,0.000,0.000
 ElectricEquipment Internal Gains Nominal, OFFICE_OPEN_7_EQUIPMENT,OFFICE_OPEN_EQUIPMENT,OFFICE_OPEN_7,264.49,13.0,2142.402,8.100,164.800,0.100,0.200,0.000,0.700,General,0.000,1713.921,642.720,1713.921,0.000,642.720,0.000,0.000,0.000,0.000
 ElectricEquipment Internal Gains Nominal, OFFICE_PRIVATE_7_EQUIPMENT,OFFICE_OPEN_EQUIPMENT,OFFICE_PRIVATE_7,40.42,2.0,327.396,8.100,163.698,0.100,0.200,0.000,0.700,General,0.000,261.917,98.219,261.917,0.000,98.219,0.000,0.000,0.000,0.000
 ElectricEquipment Internal Gains Nominal, STORAGE_7_EQUIPMENT,STORAGE_EQUIPMENT,STORAGE_7,24.98,1.0,27.480,1.100,27.480,0.100,0.200,0.000,0.700,General,0.000,21.984,8.244,21.984,0.000,8.244,0.000,0.000,0.000,0.000
 ElectricEquipment Internal Gains Nominal, CONFERENCE_8_EQUIPMENT,CONFERENCE_EQUIPMENT,CONFERENCE_8,37.11,7.0,300.587,8.100,42.941,0.100,0.200,0.000,0.700,General,0.000,240.469,90.176,240.469,0.000,90.176,0.000,0.000,0.000,0.000
 ElectricEquipment Internal Gains Nominal, BREAK_ROOM_8_EQUIPMENT,BREAK_ROOM_EQUIPMENT,BREAK_ROOM_8,70.61,7.0,1059.208,15.000,151.315,0.100,0.200,0.000,0.700,General,0.000,847.367,317.762,847.367,0.000,317.762,0.000,0.000,0.000,0.000
 ElectricEquipment Internal Gains Nominal, MECHANICAL_8_EQUIPMENT,MECHANICAL_EQUIPMENT,MECHANICAL_8,78.45,1.0,0.000,0.000,0.000,0.100,0.200,0.000,0.700,General,0.000,0.000,0.000,0.000,0.000,0.000,0.000,0.000,0.000,0.000
 ElectricEquipment Internal Gains Nominal, OFFICE_OPEN_8_EQUIPMENT,OFFICE_OPEN_EQUIPMENT,OFFICE_OPEN_8,184.27,9.0,1492.596,8.100,165.844,0.100,0.200,0.000,0.700,General,0.000,1194.077,447.779,1194.077,0.000,447.779,0.000,0.000,0.000,0.000
 ElectricEquipment Internal Gains Nominal, STORAGE_8_EQUIPMENT,STORAGE_EQUIPMENT,STORAGE_8,47.66,1.0,52.421,1.100,52.421,0.100,0.200,0.000,0.700,General,0.000,41.937,15.726,41.937,0.000,15.726,0.000,0.000,0.000,0.000
 ElectricEquipment Internal Gains Nominal, CONFERENCE_9_EQUIPMENT,CONFERENCE_EQUIPMENT,CONFERENCE_9,55.12,11.0,446.512,8.100,40.592,0.100,0.200,0.000,0.700,General,0.000,357.210,133.954,357.210,0.000,133.954,0.000,0.000,0.000,0.000
 ElectricEquipment Internal Gains Nominal, BREAK_ROOM_9_EQUIPMENT,BREAK_ROOM_EQUIPMENT,BREAK_ROOM_9,77.68,7.0,1165.253,15.000,166.465,0.100,0.200,0.000,0.700,General,0.000,932.202,349.576,932.202,0.000,349.576,0.000,0.000,0.000,0.000
 ElectricEquipment Internal Gains Nominal, MECHANICAL_9_EQUIPMENT,MECHANICAL_EQUIPMENT,MECHANICAL_9,46.71,1.0,0.000,0.000,0.000,0.100,0.200,0.000,0.700,General,0.000,0.000,0.000,0.000,0.000,0.000,0.000,0.000,0.000,0.000
 ElectricEquipment Internal Gains Nominal, OFFICE_OPEN_9_EQUIPMENT,OFFICE_OPEN_EQUIPMENT,OFFICE_OPEN_9,179.53,8.0,1454.191,8.100,181.774,0.100,0.200,0.000,0.700,General,0.000,1163.353,436.257,1163.353,0.000,436.257,0.000,0.000,0.000,0.000
 ElectricEquipment Internal Gains Nominal, OFFICE_PRIVATE_9_EQUIPMENT,OFFICE_OPEN_EQUIPMENT,OFFICE_PRIVATE_9,43.20,2.0,349.895,8.100,174.948,0.100,0.200,0.000,0.700,General,0.000,279.916,104.969,279.916,0.000,104.969,0.000,0.000,0.000,0.000
! <Enclosure/Window Adjacency Daylighting Counts>, Enclosure Name, Number of Exterior Windows, Number of Exterior Windows in Adjacent Enclosures
Enclosure/Window Adjacency Daylighting Counts, CONFERENCE_0,4,0
Enclosure/Window Adjacency Daylighting Counts, OFFICE_OPEN_0,4,0
Enclosure/Window Adjacency Daylighting Counts, LOBBY_1,4,0
Enclosure/Window Adjacency Daylighting Counts, CONFERENCE_1,4,0
Enclosure/Window Adjacency Daylighting Counts, BREAK_ROOM_1,4,0
Enclosure/Window Adjacency Daylighting Counts, OFFICE_PRIVATE_1,4,0
Enclosure/Window Adjacency Daylighting Counts, CONFERENCE_2,4,0
Enclosure/Window Adjacency Daylighting Counts, BREAK_ROOM_2,4,0
Enclosure/Window Adjacency Daylighting Counts, OFFICE_OPEN_2,4,0
Enclosure/Window Adjacency Daylighting Counts, CONFERENCE_3,4,0
Enclosure/Window Adjacency Daylighting Counts, OFFICE_OPEN_3,4,0
Enclosure/Window Adjacency Daylighting Counts, LOBBY_4,4,0
Enclosure/Window Adjacency Daylighting Counts, CONFERENCE_4,4,0
Enclosure/Window Adjacency Daylighting Counts, BREAK_ROOM_4,4,0
Enclosure/Window Adjacency Daylighting Counts, OFFICE_OPEN_4,4,0
Enclosure/Window Adjacency Daylighting Counts, CONFERENCE_5,4,0
Enclosure/Window Adjacency Daylighting Counts, BREAK_ROOM_5,4,0
Enclosure/Window Adjacency Daylighting Counts, OFFICE_PRIVATE_5,4,0
Enclosure/Window Adjacency Daylighting Counts, OFFICE_PRIVATE_6,4,0
Enclosure/Window Adjacency Daylighting Counts, LOBBY_7,4,0
Enclosure/Window Adjacency Daylighting Counts, BREAK_ROOM_7,4,0
Enclosure/Window Adjacency Daylighting Counts, OFFICE_OPEN_7,4,0
Enclosure/Window Adjacency Daylighting Counts, OFFICE_PRIVATE_7,4,0
Enclosure/Window Adjacency Daylighting Counts, CONFERENCE_8,4,0
Enclosure/Window Adjacency Daylighting Counts, BREAK_ROOM_8,4,0
Enclosure/Window Adjacency Daylighting Counts, OFFICE_OPEN_8,4,0
Enclosure/Window Adjacency Daylighting Counts, CONFERENCE_9,4,0
Enclosure/Window Adjacency Daylighting Counts, BREAK_ROOM_9,4,0
Enclosure/Window Adjacency Daylighting Counts, OFFICE_OPEN_9,4,0
Enclosure/Window Adjacency Daylighting Counts, OFFICE_PRIVATE_9,4,0
! <Enclosure/Window Adjacency Daylighting Matrix>, Enclosure Name, Number of Adjacent Enclosures with Windows,Adjacent Enclosure Names - 1st 100 (max)
Enclosure/Window Adjacency Daylighting Matrix, CONFERENCE_0,0
Enclosure/Window Adjacency Daylighting Matrix, OFFICE_OPEN_0,0
Enclosure/Window Adjacency Daylighting Matrix, LOBBY_1,0
Enclosure/Window Adjacency Daylighting Matrix, CONFERENCE_1,0
Enclosure/Window Adjacency Daylighting Matrix, BREAK_ROOM_1,0
Enclosure/Window Adjacency Daylighting Matrix, OFFICE_PRIVATE_1,0
Enclosure/Window Adjacency Daylighting Matrix, CONFERENCE_2,0
Enclosure/Window Adjacency Daylighting Matrix, BREAK_ROOM_2,0
Enclosure/Window Adjacency Daylighting Matrix, OFFICE_OPEN_2,0
Enclosure/Window Adjacency Daylighting Matrix, CONFERENCE_3,0
Enclosure/Window Adjacency Daylighting Matrix, OFFICE_OPEN_3,0
Enclosure/Window Adjacency Daylighting Matrix, LOBBY_4,0
Enclosure/Window Adjacency Daylighting Matrix, CONFERENCE_4,0
Enclosure/Window Adjacency Daylighting Matrix, BREAK_ROOM_4,0
Enclosure/Window Adjacency Daylighting Matrix, OFFICE_OPEN_4,0
Enclosure/Window Adjacency Daylighting Matrix, CONFERENCE_5,0
Enclosure/Window Adjacency Daylighting Matrix, BREAK_ROOM_5,0
Enclosure/Window Adjacency Daylighting Matrix, OFFICE_PRIVATE_5,0
Enclosure/Window Adjacency Daylighting Matrix, OFFICE_PRIVATE_6,0
Enclosure/Window Adjacency Daylighting Matrix, LOBBY_7,0
Enclosure/Window Adjacency Daylighting Matrix, BREAK_ROOM_7,0
Enclosure/Window Adjacency Daylighting Matrix, OFFICE_OPEN_7,0
Enclosure/Window Adjacency Daylighting Matrix, OFFICE_PRIVATE_7,0
Enclosure/Window Adjacency Daylighting Matrix, CONFERENCE_8,0
Enclosure/Window Adjacency Daylighting Matrix, BREAK_ROOM_8,0
Enclosure/Window Adjacency Daylighting Matrix, OFFICE_OPEN_8,0
Enclosure/Window Adjacency Daylighting Matrix, CONFERENCE_9,0
Enclosure/Window Adjacency Daylighting Matrix, BREAK_ROOM_9,0
Enclosure/Window Adjacency Daylighting Matrix, OFFICE_OPEN_9,0
Enclosure/Window Adjacency Daylighting Matrix, OFFICE_PRIVATE_9,0
! <ZoneInfiltration Airflow Stats Nominal>,Name,Schedule Name,Zone Name, Zone Floor Area {m2}, # Zone Occupants,Design Volume Flow Rate {m3/s},Volume Flow Rate/Floor Area {m3/s-m2},Volume Flow Rate/Exterior Surface Area {m3/s-m2},ACH - Air Changes per Hour,Equation A - Constant Term Coefficient {},Equation B - Temperature Term Coefficient {1/C},Equation C - Velocity Term Coefficient {s/m}, Equation D - Velocity Squared Term Coefficient {s2/m2}
 ZoneInfiltration Airflow Stats Nominal, CONFERENCE_0_INFILTRATION,CONFERENCE_0_INFILTRATION_SCHEDULE,CONFERENCE_0,38.08,7.0,9.519E-003,2.500E-004,6.245E-005,0.300,1.000,0.960,0.120,0.000
 ZoneInfiltration Airflow Stats Nominal, MECHANICAL_0_INFILTRATION,MECHANICAL_0_INFILTRATION_SCHEDULE,MECHANICAL_0,64.42,1.0,1.610E-002,2.500E-004,6.983E-005,0.300,1.000,0.960,0.120,0.000
 ZoneInfiltration Airflow Stats Nominal, OFFICE_OPEN_0_INFILTRATION,OFFICE_OPEN_0_INFILTRATION_SCHEDULE,OFFICE_OPEN_0,114.02,5.0,2.851E-002,2.500E-004,7.961E-005,0.300,1.000,0.960,0.120,0.000
 ZoneInfiltration Airflow Stats Nominal, STORAGE_0_INFILTRATION,STORAGE_0_INFILTRATION_SCHEDULE,STORAGE_0,44.08,1.0,1.102E-002,2.500E-004,6.495E-005,0.300,1.000,0.960,0.120,0.000
 ZoneInfiltration Airflow Stats Nominal, LOBBY_1_INFILTRATION,LOBBY_1_INFILTRATION_SCHEDULE,LOBBY_1,139.90,6.0,3.498E-002,2.500E-004,8.138E-005,0.300,1.000,0.960,0.120,0.000
 ZoneInfiltration Airflow Stats Nominal, CONFERENCE_1_INFILTRATION,CONFERENCE_1_INFILTRATION_SCHEDULE,CONFERENCE_1,57.81,11.0,1.445E-002,2.500E-004,6.850E-005,0.300,1.000,0.960,0.120,0.000
 ZoneInfiltration Airflow Stats Nominal, BREAK_ROOM_1_INFILTRATION,BREAK_ROOM_1_INFILTRATION_SCHEDULE,BREAK_ROOM_1,60.91,6.0,1.523E-002,2.500E-004,7.016E-005,0.300,1.000,0.960,0.120,0.000
 ZoneInfiltration Airflow Stats Nominal, OFFICE_PRIVATE_1_INFILTRATION,OFFICE_PRIVATE_1_INFILTRATION_SCHEDULE,OFFICE_PRIVATE_1,34.73,1.0,8.683E-003,2.500E-004,6.190E-005,0.300,1.000,0.960,0.120,0.000
 ZoneInfiltration Airflow Stats Nominal, CONFERENCE_2_INFILTRATION,CONFERENCE_2_INFILTRATION_SCHEDULE,CONFERENCE_2,95.10,19.0,2.378E-002,2.500E-004,7.619E-005,0.300,1.000,0.960,0.120,0.000
 ZoneInfiltration Airflow Stats Nominal, BREAK_ROOM_2_INFILTRATION,BREAK_ROOM_2_INFILTRATION_SCHEDULE,BREAK_ROOM_2,64.78,6.0,1.620E-002,2.500E-004,7.073E-005,0.300,1.000,0.960,0.120,0.000
 ZoneInfiltration Airflow Stats Nominal, MECHANICAL_2_INFILTRATION,MECHANICAL_2_INFILTRATION_SCHEDULE,MECHANICAL_2,26.10,1.0,6.524E-003,2.500E-004,5.568E-005,0.300,1.000,0.960,0.120,0.000
 ZoneInfiltration Airflow Stats Nominal, OFFICE_OPEN_2_INFILTRATION,OFFICE_OPEN_2_INFILTRATION_SCHEDULE,OFFICE_OPEN_2,435.70,21.0,0.109,2.500E-004,9.704E-005,0.300,1.000,0.960,0.120,0.000
 ZoneInfiltration Airflow Stats Nominal, CONFERENCE_3_INFILTRATION,CONFERENCE_3_INFILTRATION_SCHEDULE,CONFERENCE_3,83.06,16.0,2.076E-002,2.500E-004,7.398E-005,0.300,1.000,0.960,0.120,0.000
 ZoneInfiltration Airflow Stats Nominal, MECHANICAL_3_INFILTRATION,MECHANICAL_3_INFILTRATION_SCHEDULE,MECHANICAL_3,64.56,1.0,1.614E-002,2.500E-004,7.148E-005,0.300,1.000,0.960,0.120,0.000
 ZoneInfiltration Airflow Stats Nominal, OFFICE_OPEN_3_INFILTRATION,OFFICE_OPEN_3_INFILTRATION_SCHEDULE,OFFICE_OPEN_3,189.75,9.0,4.744E-002,2.500E-004,8.697E-005,0.300,1.000,0.960,0.120,0.000
 ZoneInfiltration Airflow Stats Nominal, STORAGE_3_INFILTRATION,STORAGE_3_INFILTRATION_SCHEDULE,STORAGE_3,27.36,1.0,6.839E-003,2.500E-004,5.723E-005,0.300,1.000,0.960,0.120,0.000
 ZoneInfiltration Airflow Stats Nominal, LOBBY_4_INFILTRATION,LOBBY_4_INFILTRATION_SCHEDULE,LOBBY_4,198.78,9.0,4.969E-002,2.500E-004,8.702E-005,0.300,1.000,0.960,0.120,0.000
 ZoneInfiltration Airflow Stats Nominal, CONFERENCE_4_INFILTRATION,CONFERENCE_4_INFILTRATION_SCHEDULE,CONFERENCE_4,60.59,12.0,1.515E-002,2.500E-004,7.027E-005,0.300,1.000,0.960,0.120,0.000
 ZoneInfiltration Airflow Stats Nominal, BREAK_ROOM_4_INFILTRATION,BREAK_ROOM_4_INFILTRATION_SCHEDULE,BREAK_ROOM_4,64.99,6.0,1.625E-002,2.500E-004,7.021E-005,0.300,1.000,0.960,0.120,0.000
 ZoneInfiltration Airflow Stats Nominal, MECHANICAL_4_INFILTRATION,MECHANICAL_4_INFILTRATION_SCHEDULE,MECHANICAL_4,69.56,1.0,1.739E-002,2.500E-004,7.196E-005,0.300,1.000,0.960,0.120,0.000
 ZoneInfiltration Airflow Stats Nominal, OFFICE_OPEN_4_INFILTRATION,OFFICE_OPEN_4_INFILTRATION_SCHEDULE,OFFICE_OPEN_4,496.83,24.0,0.124,2.500E-004,9.763E-005,0.300,1.000,0.960,0.120,0.000
 ZoneInfiltration Airflow Stats Nominal, CONFERENCE_5_INFILTRATION,CONFERENCE_5_INFILTRATION_SCHEDULE,CONFERENCE_5,66.50,13.0,1.663E-002,2.500E-004,7.187E-005,0.300,1.000,0.960,0.120,0.000
 ZoneInfiltration Airflow Stats Nominal, BREAK_ROOM_5_INFILTRATION,BREAK_ROOM_5_INFILTRATION_SCHEDULE,BREAK_ROOM_5,68.39,6.0,1.710E-002,2.500E-004,7.143E-005,0.300,1.000,0.960,0.120,0.000
 ZoneInfiltration Airflow Stats Nominal, MECHANICAL_5_INFILTRATION,MECHANICAL_5_INFILTRATION_SCHEDULE,MECHANICAL_5,70.48,1.0,1.762E-002,2.500E-004,7.251E-005,0.300,1.000,0.960,0.120,0.000
 ZoneInfiltration Airflow Stats Nominal, OFFICE_PRIVATE_5_INFILTRATION,OFFICE_PRIVATE_5_INFILTRATION_SCHEDULE,OFFICE_PRIVATE_5,32.32,1.0,8.080E-003,2.500E-004,6.062E-005,0.300,1.000,0.960,0.120,0.000
 ZoneInfiltration Airflow Stats Nominal, OFFICE_PRIVATE_6_INFILTRATION,OFFICE_PRIVATE_6_INFILTRATION_SCHEDULE,OFFICE_PRIVATE_6,31.27,1.0,7.818E-003,2.500E-004,5.967E-005,0.300,1.000,0.960,0.120,0.000
 ZoneInfiltration Airflow Stats Nominal, LOBBY_7_INFILTRATION,LOBBY_7_INFILTRATION_SCHEDULE,LOBBY_7,125.76,6.0,3.144E-002,2.500E-004,8.087E-005,0.300,1.000,0.960,0.120,0.000
 ZoneInfiltration Airflow Stats Nominal, BREAK_ROOM_7_INFILTRATION,BREAK_ROOM_7_INFILTRATION_SCHEDULE,BREAK_ROOM_7,23.97,2.0,5.992E-003,2.500E-004,5.617E-005,0.300,1.000,0.960,0.120,0.000
 ZoneInfiltration Airflow Stats Nominal, MECHANICAL_7_INFILTRATION,MECHANICAL_7_INFILTRATION_SCHEDULE,MECHANICAL_7,69.75,1.0,1.744E-002,2.500E-004,7.256E-005,0.300,1.000,0.960,0.120,0.000
 ZoneInfiltration Airflow Stats Nominal, OFFICE_OPEN_7_INFILTRATION,OFFICE_OPEN_7_INFILTRATION_SCHEDULE,OFFICE_OPEN_7,264.49,13.0,6.612E-002,2.500E-004,9.131E-005,0.300,1.000,0.960,0.120,0.000
 ZoneInfiltration Airflow Stats Nominal, OFFICE_PRIVATE_7_INFILTRATION,OFFICE_PRIVATE_7_INFILTRATION_SCHEDULE,OFFICE_PRIVATE_7,40.42,2.0,1.011E-002,2.500E-004,6.416E-005,0.300,1.000,0.960,0.120,0.000
 ZoneInfiltration Airflow Stats Nominal, STORAGE_7_INFILTRATION,STORAGE_7_INFILTRATION_SCHEDULE,STORAGE_7,24.98,1.0,6.245E-003,2.500E-004,5.665E-005,0.300,1.000,0.960,0.120,0.000
 ZoneInfiltration Airflow Stats Nominal, CONFERENCE_8_INFILTRATION,CONFERENCE_8_INFILTRATION_SCHEDULE,CONFERENCE_8,37.11,7.0,9.277E-003,2.500E-004,6.137E-005,0.300,1.000,0.960,0.120,0.000
 ZoneInfiltration Airflow Stats Nominal, BREAK_ROOM_8_INFILTRATION,BREAK_ROOM_8_INFILTRATION_SCHEDULE,BREAK_ROOM_8,70.61,7.0,1.765E-002,2.500E-004,7.210E-005,0.300,1.000,0.960,0.120,0.000
 ZoneInfiltration Airflow Stats Nominal, MECHANICAL_8_INFILTRATION,MECHANICAL_8_INFILTRATION_SCHEDULE,MECHANICAL_8,78.45,1.0,1.961E-002,2.500E-004,7.439E-005,0.300,1.000,0.960,0.120,0.000
 ZoneInfiltration Airflow Stats Nominal, OFFICE_OPEN_8_INFILTRATION,OFFICE_OPEN_8_INFILTRATION_SCHEDULE,OFFICE_OPEN_8,184.27,9.0,4.607E-002,2.500E-004,8.618E-005,0.300,1.000,0.960,0.120,0.000
 ZoneInfiltration Airflow Stats Nominal, STORAGE_8_INFILTRATION,STORAGE_8_INFILTRATION_SCHEDULE,STORAGE_8,47.66,1.0,1.191E-002,2.500E-004,6.619E-005,0.300,1.000,0.960,0.120,0.000
 ZoneInfiltration Airflow Stats Nominal, CONFERENCE_9_INFILTRATION,CONFERENCE_9_INFILTRATION_SCHEDULE,CONFERENCE_9,55.12,11.0,1.378E-002,2.500E-004,6.902E-005,0.300,1.000,0.960,0.120,0.000
 ZoneInfiltration Airflow Stats Nominal, BREAK_ROOM_9_INFILTRATION,BREAK_ROOM_9_INFILTRATION_SCHEDULE,BREAK_ROOM_9,77.68,7.0,1.942E-002,2.500E-004,7.398E-005,0.300,1.000,0.960,0.120,0.000
 ZoneInfiltration Airflow Stats Nominal, MECHANICAL_9_INFILTRATION,MECHANICAL_9_INFILTRATION_SCHEDULE,MECHANICAL_9,46.71,1.0,1.168E-002,2.500E-004,6.501E-005,0.300,1.000,0.960,0.120,0.000
 ZoneInfiltration Airflow Stats Nominal, OFFICE_OPEN_9_INFILTRATION,OFFICE_OPEN_9_INFILTRATION_SCHEDULE,OFFICE_OPEN_9,179.53,8.0,4.488E-002,2.500E-004,8.550E-005,0.300,1.000,0.960,0.120,0.000
 ZoneInfiltration Airflow Stats Nominal, OFFICE_PRIVATE_9_INFILTRATION,OFFICE_PRIVATE_9_INFILTRATION_SCHEDULE,OFFICE_PRIVATE_9,43.20,2.0,1.080E-002,2.500E-004,6.517E-005,0.300,1.000,0.960,0.120,0.000
! <AirFlow Model>, Simple
 AirFlow Model, Simple
! <RoomAir Model>, Zone Name, Mixing/Mundt/UCSDDV/UCSDCV/UCSDUFI/UCSDUFE/User Defined
RoomAir Model,CONFERENCE_0,Mixing/Well-Stirred
RoomAir Model,MECHANICAL_0,Mixing/Well-Stirred
RoomAir Model,OFFICE_OPEN_0,Mixing/Well-Stirred
RoomAir Model,STORAGE_0,Mixing/Well-Stirred
RoomAir Model,LOBBY_1,Mixing/Well-Stirred
RoomAir Model,CONFERENCE_1,Mixing/Well-Stirred
RoomAir Model,BREAK_ROOM_1,Mixing/Well-Stirred
RoomAir Model,OFFICE_PRIVATE_1,Mixing/Well-Stirred
RoomAir Model,CONFERENCE_2,Mixing/Well-Stirred
RoomAir Model,BREAK_ROOM_2,Mixing/Well-Stirred
RoomAir Model,MECHANICAL_2,Mixing/Well-Stirred
RoomAir Model,OFFICE_OPEN_2,Mixing/Well-Stirred
RoomAir Model,CONFERENCE_3,Mixing/Well-Stirred
RoomAir Model,MECHANICAL_3,Mixing/Well-Stirred
RoomAir Model,OFFICE_OPEN_3,Mixing/Well-Stirred
RoomAir Model,STORAGE_3,Mixing/Well-Stirred
RoomAir Model,LOBBY_4,Mixing/Well-Stirred
RoomAir Model,CONFERENCE_4,Mixing/Well-Stirred
RoomAir Model,BREAK_ROOM_4,Mixing/Well-Stirred
RoomAir Model,MECHANICAL_4,Mixing/Well-Stirred
RoomAir Model,OFFICE_OPEN_4,Mixing/Well-Stirred
RoomAir Model,CONFERENCE_5,Mixing/Well-Stirred
RoomAir Model,BREAK_ROOM_5,Mixing/Well-Stirred
RoomAir Model,MECHANICAL_5,Mixing/Well-Stirred
RoomAir Model,OFFICE_PRIVATE_5,Mixing/Well-Stirred
RoomAir Model,OFFICE_PRIVATE_6,Mixing/Well-Stirred
RoomAir Model,LOBBY_7,Mixing/Well-Stirred
RoomAir Model,BREAK_ROOM_7,Mixing/Well-Stirred
RoomAir Model,MECHANICAL_7,Mixing/Well-Stirred
RoomAir Model,OFFICE_OPEN_7,Mixing/Well-Stirred
RoomAir Model,OFFICE_PRIVATE_7,Mixing/Well-Stirred
RoomAir Model,STORAGE_7,Mixing/Well-Stirred
RoomAir Model,CONFERENCE_8,Mixing/Well-Stirred
RoomAir Model,BREAK_ROOM_8,Mixing/Well-Stirred
RoomAir Model,MECHANICAL_8,Mixing/Well-Stirred
RoomAir Model,OFFICE_OPEN_8,Mixing/Well-Stirred
RoomAir Model,STORAGE_8,Mixing/Well-Stirred
RoomAir Model,CONFERENCE_9,Mixing/Well-Stirred
RoomAir Model,BREAK_ROOM_9,Mixing/Well-Stirred
RoomAir Model,MECHANICAL_9,Mixing/Well-Stirred
RoomAir Model,OFFICE_OPEN_9,Mixing/Well-Stirred
RoomAir Model,OFFICE_PRIVATE_9,Mixing/Well-Stirred
! <AirflowNetwork Model:Control>, No Multizone or Distribution/Multizone with Distribution/Multizone without Distribution/Multizone with Distribution only during Fan Operation
AirflowNetwork Model:Control,NoMultizoneOrDistribution
! <Zone Volume Capacitance Multiplier>, Sensible Heat Capacity Multiplier, Moisture Capacity Multiplier, Carbon Dioxide Capacity Multiplier, Generic Contaminant Capacity Multiplier
Zone Volume Capacitance Multiplier,   1.000 ,   1.000,   1.000,   1.000
! <Component Sizing Information>, Component Type, Component Name, Input Field Description, Value
 Component Sizing Information, AirTerminal:SingleDuct:VAV:Reheat, CONFERENCE_0_Z1_VAVTERMINAL, User-Specified Maximum Air Flow Rate [m3/s], 0.19037
 Component Sizing Information, AirTerminal:SingleDuct:VAV:Reheat, CONFERENCE_0_Z1_VAVTERMINAL, Design Size Constant Minimum Air Flow Fraction, 0.20000
 Component Sizing Information, AirTerminal:SingleDuct:VAV:Reheat, CONFERENCE_0_Z1_VAVTERMINAL, User-Specified Constant Minimum Air Flow Fraction, 0.20000
 Component Sizing Information, AirTerminal:SingleDuct:VAV:Reheat, CONFERENCE_0_Z1_VAVTERMINAL, Design Size Minimum Air Flow Rate [m3/s], 3.80747E-002
 Component Sizing Information, AirTerminal:SingleDuct:VAV:Reheat, CONFERENCE_0_Z1_VAVTERMINAL, Design Size Maximum Flow per Zone Floor Area during Reheat [m3/s-m2], 9.99978E-004
 Component Sizing Information, AirTerminal:SingleDuct:VAV:Reheat, CONFERENCE_0_Z1_VAVTERMINAL, Design Size Maximum Flow Fraction during Reheat [], 0.20000
 Component Sizing Information, AirTerminal:SingleDuct:VAV:Reheat, CONFERENCE_0_Z1_VAVTERMINAL, User-Specified Maximum Reheat Water Flow Rate [m3/s], 3.04597
 Component Sizing Information, Coil:Heating:Electric, CONFERENCE_0_Z1_REHEATCOIL, User-Specified Nominal Capacity [W], 913.79228
 Component Sizing Information, AirTerminal:SingleDuct:VAV:Reheat, MECHANICAL_0_Z2_VAVTERMINAL, User-Specified Maximum Air Flow Rate [m3/s], 0.32208
 Component Sizing Information, AirTerminal:SingleDuct:VAV:Reheat, MECHANICAL_0_Z2_VAVTERMINAL, Design Size Constant Minimum Air Flow Fraction, 0.20000
 Component Sizing Information, AirTerminal:SingleDuct:VAV:Reheat, MECHANICAL_0_Z2_VAVTERMINAL, User-Specified Constant Minimum Air Flow Fraction, 0.20000
 Component Sizing Information, AirTerminal:SingleDuct:VAV:Reheat, MECHANICAL_0_Z2_VAVTERMINAL, Design Size Minimum Air Flow Rate [m3/s], 6.44165E-002
 Component Sizing Information, AirTerminal:SingleDuct:VAV:Reheat, MECHANICAL_0_Z2_VAVTERMINAL, Design Size Maximum Flow per Zone Floor Area during Reheat [m3/s-m2], 1.00001E-003
 Component Sizing Information, AirTerminal:SingleDuct:VAV:Reheat, MECHANICAL_0_Z2_VAVTERMINAL, Design Size Maximum Flow Fraction during Reheat [], 0.20000
 Component Sizing Information, AirTerminal:SingleDuct:VAV:Reheat, MECHANICAL_0_Z2_VAVTERMINAL, User-Specified Maximum Reheat Water Flow Rate [m3/s], 5.15332
 Component Sizing Information, Coil:Heating:Electric, MECHANICAL_0_Z2_REHEATCOIL, User-Specified Nominal Capacity [W], 1545.99503
 Component Sizing Information, AirTerminal:SingleDuct:VAV:Reheat, OFFICE_OPEN_0_Z3_VAVTERMINAL, User-Specified Maximum Air Flow Rate [m3/s], 0.57012
 Component Sizing Information, AirTerminal:SingleDuct:VAV:Reheat, OFFICE_OPEN_0_Z3_VAVTERMINAL, Design Size Constant Minimum Air Flow Fraction, 0.20000
 Component Sizing Information, AirTerminal:SingleDuct:VAV:Reheat, OFFICE_OPEN_0_Z3_VAVTERMINAL, User-Specified Constant Minimum Air Flow Fraction, 0.20000
 Component Sizing Information, AirTerminal:SingleDuct:VAV:Reheat, OFFICE_OPEN_0_Z3_VAVTERMINAL, Design Size Minimum Air Flow Rate [m3/s], 0.11402
 Component Sizing Information, AirTerminal:SingleDuct:VAV:Reheat, OFFICE_OPEN_0_Z3_VAVTERMINAL, Design Size Maximum Flow per Zone Floor Area during Reheat [m3/s-m2], 1.00000E-003
 Component Sizing Information, AirTerminal:SingleDuct:VAV:Reheat, OFFICE_OPEN_0_Z3_VAVTERMINAL, Design Size Maximum Flow Fraction during Reheat [], 0.20000
 Component Sizing Information, AirTerminal:SingleDuct:VAV:Reheat, OFFICE_OPEN_0_Z3_VAVTERMINAL, User-Specified Maximum Reheat Water Flow Rate [m3/s], 9.12189
 Component Sizing Information, Coil:Heating:Electric, OFFICE_OPEN_0_Z3_REHEATCOIL, User-Specified Nominal Capacity [W], 2736.56670
 Component Sizing Information, AirTerminal:SingleDuct:VAV:Reheat, STORAGE_0_Z4_VAVTERMINAL, User-Specified Maximum Air Flow Rate [m3/s], 0.22041
 Component Sizing Information, AirTerminal:SingleDuct:VAV:Reheat, STORAGE_0_Z4_VAVTERMINAL, Design Size Constant Minimum Air Flow Fraction, 0.20000
 Component Sizing Information, AirTerminal:SingleDuct:VAV:Reheat, STORAGE_0_Z4_VAVTERMINAL, User-Specified Constant Minimum Air Flow Fraction, 0.20000
 Component Sizing Information, AirTerminal:SingleDuct:VAV:Reheat, STORAGE_0_Z4_VAVTERMINAL, Design Size Minimum Air Flow Rate [m3/s], 4.40818E-002
 Component Sizing Information, AirTerminal:SingleDuct:VAV:Reheat, STORAGE_0_Z4_VAVTERMINAL, Design Size Maximum Flow per Zone Floor Area during Reheat [m3/s-m2], 1.00001E-003
 Component Sizing Information, AirTerminal:SingleDuct:VAV:Reheat, STORAGE_0_Z4_VAVTERMINAL, Design Size Maximum Flow Fraction during Reheat [], 0.20000
 Component Sizing Information, AirTerminal:SingleDuct:VAV:Reheat, STORAGE_0_Z4_VAVTERMINAL, User-Specified Maximum Reheat Water Flow Rate [m3/s], 3.52654
 Component Sizing Information, Coil:Heating:Electric, STORAGE_0_Z4_REHEATCOIL, User-Specified Nominal Capacity [W], 1057.96334
 Component Sizing Information, AirTerminal:SingleDuct:VAV:Reheat, LOBBY_1_Z5_VAVTERMINAL, User-Specified Maximum Air Flow Rate [m3/s], 0.69952
 Component Sizing Information, AirTerminal:SingleDuct:VAV:Reheat, LOBBY_1_Z5_VAVTERMINAL, Design Size Constant Minimum Air Flow Fraction, 0.20000
 Component Sizing Information, AirTerminal:SingleDuct:VAV:Reheat, LOBBY_1_Z5_VAVTERMINAL, User-Specified Constant Minimum Air Flow Fraction, 0.20000
 Component Sizing Information, AirTerminal:SingleDuct:VAV:Reheat, LOBBY_1_Z5_VAVTERMINAL, Design Size Minimum Air Flow Rate [m3/s], 0.13990
 Component Sizing Information, AirTerminal:SingleDuct:VAV:Reheat, LOBBY_1_Z5_VAVTERMINAL, Design Size Maximum Flow per Zone Floor Area during Reheat [m3/s-m2], 9.99992E-004
 Component Sizing Information, AirTerminal:SingleDuct:VAV:Reheat, LOBBY_1_Z5_VAVTERMINAL, Design Size Maximum Flow Fraction during Reheat [], 0.20000
 Component Sizing Information, AirTerminal:SingleDuct:VAV:Reheat, LOBBY_1_Z5_VAVTERMINAL, User-Specified Maximum Reheat Water Flow Rate [m3/s], 11.19225
 Component Sizing Information, Coil:Heating:Electric, LOBBY_1_Z5_REHEATCOIL, User-Specified Nominal Capacity [W], 3357.67510
 Component Sizing Information, AirTerminal:SingleDuct:VAV:Reheat, CONFERENCE_1_Z6_VAVTERMINAL, User-Specified Maximum Air Flow Rate [m3/s], 0.28905
 Component Sizing Information, AirTerminal:SingleDuct:VAV:Reheat, CONFERENCE_1_Z6_VAVTERMINAL, Design Size Constant Minimum Air Flow Fraction, 0.20000
 Component Sizing Information, AirTerminal:SingleDuct:VAV:Reheat, CONFERENCE_1_Z6_VAVTERMINAL, User-Specified Constant Minimum Air Flow Fraction, 0.20000
 Component Sizing Information, AirTerminal:SingleDuct:VAV:Reheat, CONFERENCE_1_Z6_VAVTERMINAL, Design Size Minimum Air Flow Rate [m3/s], 5.78095E-002
 Component Sizing Information, AirTerminal:SingleDuct:VAV:Reheat, CONFERENCE_1_Z6_VAVTERMINAL, Design Size Maximum Flow per Zone Floor Area during Reheat [m3/s-m2], 9.99992E-004
 Component Sizing Information, AirTerminal:SingleDuct:VAV:Reheat, CONFERENCE_1_Z6_VAVTERMINAL, Design Size Maximum Flow Fraction during Reheat [], 0.20000
 Component Sizing Information, AirTerminal:SingleDuct:VAV:Reheat, CONFERENCE_1_Z6_VAVTERMINAL, User-Specified Maximum Reheat Water Flow Rate [m3/s], 4.62476
 Component Sizing Information, Coil:Heating:Electric, CONFERENCE_1_Z6_REHEATCOIL, User-Specified Nominal Capacity [W], 1387.42749
 Component Sizing Information, AirTerminal:SingleDuct:VAV:Reheat, BREAK_ROOM_1_Z7_VAVTERMINAL, User-Specified Maximum Air Flow Rate [m3/s], 0.30453
 Component Sizing Information, AirTerminal:SingleDuct:VAV:Reheat, BREAK_ROOM_1_Z7_VAVTERMINAL, Design Size Constant Minimum Air Flow Fraction, 0.20000
 Component Sizing Information, AirTerminal:SingleDuct:VAV:Reheat, BREAK_ROOM_1_Z7_VAVTERMINAL, User-Specified Constant Minimum Air Flow Fraction, 0.20000
 Component Sizing Information, AirTerminal:SingleDuct:VAV:Reheat, BREAK_ROOM_1_Z7_VAVTERMINAL, Design Size Minimum Air Flow Rate [m3/s], 6.09064E-002
 Component Sizing Information, AirTerminal:SingleDuct:VAV:Reheat, BREAK_ROOM_1_Z7_VAVTERMINAL, Design Size Maximum Flow per Zone Floor Area during Reheat [m3/s-m2], 9.99985E-004
 Component Sizing Information, AirTerminal:SingleDuct:VAV:Reheat, BREAK_ROOM_1_Z7_VAVTERMINAL, Design Size Maximum Flow Fraction during Reheat [], 0.20000
 Component Sizing Information, AirTerminal:SingleDuct:VAV:Reheat, BREAK_ROOM_1_Z7_VAVTERMINAL, User-Specified Maximum Reheat Water Flow Rate [m3/s], 4.87251
 Component Sizing Information, Coil:Heating:Electric, BREAK_ROOM_1_Z7_REHEATCOIL, User-Specified Nominal Capacity [W], 1461.75311
 Component Sizing Information, AirTerminal:SingleDuct:VAV:Reheat, OFFICE_PRIVATE_1_Z8_VAVTERMINAL, User-Specified Maximum Air Flow Rate [m3/s], 0.17365
 Component Sizing Information, AirTerminal:SingleDuct:VAV:Reheat, OFFICE_PRIVATE_1_Z8_VAVTERMINAL, Design Size Constant Minimum Air Flow Fraction, 0.20000
 Component Sizing Information, AirTerminal:SingleDuct:VAV:Reheat, OFFICE_PRIVATE_1_Z8_VAVTERMINAL, User-Specified Constant Minimum Air Flow Fraction, 0.20000
 Component Sizing Information, AirTerminal:SingleDuct:VAV:Reheat, OFFICE_PRIVATE_1_Z8_VAVTERMINAL, Design Size Minimum Air Flow Rate [m3/s], 3.47300E-002
 Component Sizing Information, AirTerminal:SingleDuct:VAV:Reheat, OFFICE_PRIVATE_1_Z8_VAVTERMINAL, Design Size Maximum Flow per Zone Floor Area during Reheat [m3/s-m2], 9.99977E-004
 Component Sizing Information, AirTerminal:SingleDuct:VAV:Reheat, OFFICE_PRIVATE_1_Z8_VAVTERMINAL, Design Size Maximum Flow Fraction during Reheat [], 0.20000
 Component Sizing Information, AirTerminal:SingleDuct:VAV:Reheat, OFFICE_PRIVATE_1_Z8_VAVTERMINAL, User-Specified Maximum Reheat Water Flow Rate [m3/s], 2.77840
 Component Sizing Information, Coil:Heating:Electric, OFFICE_PRIVATE_1_Z8_REHEATCOIL, User-Specified Nominal Capacity [W], 833.52050
 Component Sizing Information, AirTerminal:SingleDuct:VAV:Reheat, CONFERENCE_2_Z9_VAVTERMINAL, User-Specified Maximum Air Flow Rate [m3/s], 0.47549
 Component Sizing Information, AirTerminal:SingleDuct:VAV:Reheat, CONFERENCE_2_Z9_VAVTERMINAL, Design Size Constant Minimum Air Flow Fraction, 0.20000
 Component Sizing Information, AirTerminal:SingleDuct:VAV:Reheat, CONFERENCE_2_Z9_VAVTERMINAL, User-Specified Constant Minimum Air Flow Fraction, 0.20000
 Component Sizing Information, AirTerminal:SingleDuct:VAV:Reheat, CONFERENCE_2_Z9_VAVTERMINAL, Design Size Minimum Air Flow Rate [m3/s], 9.50987E-002
 Component Sizing Information, AirTerminal:SingleDuct:VAV:Reheat, CONFERENCE_2_Z9_VAVTERMINAL, Design Size Maximum Flow per Zone Floor Area during Reheat [m3/s-m2], 1.00001E-003
 Component Sizing Information, AirTerminal:SingleDuct:VAV:Reheat, CONFERENCE_2_Z9_VAVTERMINAL, Design Size Maximum Flow Fraction during Reheat [], 0.20000
 Component Sizing Information, AirTerminal:SingleDuct:VAV:Reheat, CONFERENCE_2_Z9_VAVTERMINAL, User-Specified Maximum Reheat Water Flow Rate [m3/s], 7.60789
 Component Sizing Information, Coil:Heating:Electric, CONFERENCE_2_Z9_REHEATCOIL, User-Specified Nominal Capacity [W], 2282.36833
 Component Sizing Information, AirTerminal:SingleDuct:VAV:Reheat, BREAK_ROOM_2_Z10_VAVTERMINAL, User-Specified Maximum Air Flow Rate [m3/s], 0.32390
 Component Sizing Information, AirTerminal:SingleDuct:VAV:Reheat, BREAK_ROOM_2_Z10_VAVTERMINAL, Design Size Constant Minimum Air Flow Fraction, 0.20000
 Component Sizing Information, AirTerminal:SingleDuct:VAV:Reheat, BREAK_ROOM_2_Z10_VAVTERMINAL, User-Specified Constant Minimum Air Flow Fraction, 0.20000
 Component Sizing Information, AirTerminal:SingleDuct:VAV:Reheat, BREAK_ROOM_2_Z10_VAVTERMINAL, Design Size Minimum Air Flow Rate [m3/s], 6.47805E-002
 Component Sizing Information, AirTerminal:SingleDuct:VAV:Reheat, BREAK_ROOM_2_Z10_VAVTERMINAL, Design Size Maximum Flow per Zone Floor Area during Reheat [m3/s-m2], 9.99992E-004
 Component Sizing Information, AirTerminal:SingleDuct:VAV:Reheat, BREAK_ROOM_2_Z10_VAVTERMINAL, Design Size Maximum Flow Fraction during Reheat [], 0.20000
 Component Sizing Information, AirTerminal:SingleDuct:VAV:Reheat, BREAK_ROOM_2_Z10_VAVTERMINAL, User-Specified Maximum Reheat Water Flow Rate [m3/s], 5.18244
 Component Sizing Information, Coil:Heating:Electric, BREAK_ROOM_2_Z10_REHEATCOIL, User-Specified Nominal Capacity [W], 1554.73273
 Component Sizing Information, AirTerminal:SingleDuct:VAV:Reheat, MECHANICAL_2_Z11_VAVTERMINAL, User-Specified Maximum Air Flow Rate [m3/s], 0.13049
 Component Sizing Information, AirTerminal:SingleDuct:VAV:Reheat, MECHANICAL_2_Z11_VAVTERMINAL, Design Size Constant Minimum Air Flow Fraction, 0.20000
 Component Sizing Information, AirTerminal:SingleDuct:VAV:Reheat, MECHANICAL_2_Z11_VAVTERMINAL, User-Specified Constant Minimum Air Flow Fraction, 0.20000
 Component Sizing Information, AirTerminal:SingleDuct:VAV:Reheat, MECHANICAL_2_Z11_VAVTERMINAL, Design Size Minimum Air Flow Rate [m3/s], 2.60979E-002
 Component Sizing Information, AirTerminal:SingleDuct:VAV:Reheat, MECHANICAL_2_Z11_VAVTERMINAL, Design Size Maximum Flow per Zone Floor Area during Reheat [m3/s-m2], 1.00001E-003
 Component Sizing Information, AirTerminal:SingleDuct:VAV:Reheat, MECHANICAL_2_Z11_VAVTERMINAL, Design Size Maximum Flow Fraction during Reheat [], 0.20000
 Component Sizing Information, AirTerminal:SingleDuct:VAV:Reheat, MECHANICAL_2_Z11_VAVTERMINAL, User-Specified Maximum Reheat Water Flow Rate [m3/s], 2.08783
 Component Sizing Information, Coil:Heating:Electric, MECHANICAL_2_Z11_REHEATCOIL, User-Specified Nominal Capacity [W], 626.35029
 Component Sizing Information, AirTerminal:SingleDuct:VAV:Reheat, OFFICE_OPEN_2_Z12_VAVTERMINAL, User-Specified Maximum Air Flow Rate [m3/s], 2.17848
[...]
 Sky Daylight Factors,Intermediate Sky,01/01,BREAK_ROOM_8_DAYLIGHT,BREAK_ROOM_8,BREAK_ROOM_8_WINDOW_3,BREAK_ROOM_8_REFERENCEPOINT1,2.9849E-003
 Sky Daylight Factors,Overcast Sky,01/01,BREAK_ROOM_8_DAYLIGHT,BREAK_ROOM_8,BREAK_ROOM_8_WINDOW_3,BREAK_ROOM_8_REFERENCEPOINT1,4.2834E-003
 Sky Daylight Factors,Clear Sky,01/01,BREAK_ROOM_8_DAYLIGHT,BREAK_ROOM_8,BREAK_ROOM_8_WINDOW_4,BREAK_ROOM_8_REFERENCEPOINT1,6.1194E-003
 Sky Daylight Factors,Clear Turbid Sky,01/01,BREAK_ROOM_8_DAYLIGHT,BREAK_ROOM_8,BREAK_ROOM_8_WINDOW_4,BREAK_ROOM_8_REFERENCEPOINT1,5.6307E-003
 Sky Daylight Factors,Intermediate Sky,01/01,BREAK_ROOM_8_DAYLIGHT,BREAK_ROOM_8,BREAK_ROOM_8_WINDOW_4,BREAK_ROOM_8_REFERENCEPOINT1,5.8002E-003
 Sky Daylight Factors,Overcast Sky,01/01,BREAK_ROOM_8_DAYLIGHT,BREAK_ROOM_8,BREAK_ROOM_8_WINDOW_4,BREAK_ROOM_8_REFERENCEPOINT1,5.2918E-003
 Sky Daylight Factors,Clear Sky,01/01,OFFICE_OPEN_8_DAYLIGHT,OFFICE_OPEN_8,OFFICE_OPEN_8_WINDOW_1,OFFICE_OPEN_8_REFERENCEPOINT1,4.5858E-003
 Sky Daylight Factors,Clear Turbid Sky,01/01,OFFICE_OPEN_8_DAYLIGHT,OFFICE_OPEN_8,OFFICE_OPEN_8_WINDOW_1,OFFICE_OPEN_8_REFERENCEPOINT1,5.0636E-003
 Sky Daylight Factors,Intermediate Sky,01/01,OFFICE_OPEN_8_DAYLIGHT,OFFICE_OPEN_8,OFFICE_OPEN_8_WINDOW_1,OFFICE_OPEN_8_REFERENCEPOINT1,3.3898E-003
 Sky Daylight Factors,Overcast Sky,01/01,OFFICE_OPEN_8_DAYLIGHT,OFFICE_OPEN_8,OFFICE_OPEN_8_WINDOW_1,OFFICE_OPEN_8_REFERENCEPOINT1,1.7515E-003
 Sky Daylight Factors,Clear Sky,01/01,OFFICE_OPEN_8_DAYLIGHT,OFFICE_OPEN_8,OFFICE_OPEN_8_WINDOW_2,OFFICE_OPEN_8_REFERENCEPOINT1,4.8339E-003
 Sky Daylight Factors,Clear Turbid Sky,01/01,OFFICE_OPEN_8_DAYLIGHT,OFFICE_OPEN_8,OFFICE_OPEN_8_WINDOW_2,OFFICE_OPEN_8_REFERENCEPOINT1,4.5921E-003
 Sky Daylight Factors,Intermediate Sky,01/01,OFFICE_OPEN_8_DAYLIGHT,OFFICE_OPEN_8,OFFICE_OPEN_8_WINDOW_2,OFFICE_OPEN_8_REFERENCEPOINT1,4.5116E-003
 Sky Daylight Factors,Overcast Sky,01/01,OFFICE_OPEN_8_DAYLIGHT,OFFICE_OPEN_8,OFFICE_OPEN_8_WINDOW_2,OFFICE_OPEN_8_REFERENCEPOINT1,3.7729E-003
 Sky Daylight Factors,Clear Sky,01/01,OFFICE_OPEN_8_DAYLIGHT,OFFICE_OPEN_8,OFFICE_OPEN_8_WINDOW_3,OFFICE_OPEN_8_REFERENCEPOINT1,2.6398E-003
 Sky Daylight Factors,Clear Turbid Sky,01/01,OFFICE_OPEN_8_DAYLIGHT,OFFICE_OPEN_8,OFFICE_OPEN_8_WINDOW_3,OFFICE_OPEN_8_REFERENCEPOINT1,2.2052E-003
 Sky Daylight Factors,Intermediate Sky,01/01,OFFICE_OPEN_8_DAYLIGHT,OFFICE_OPEN_8,OFFICE_OPEN_8_WINDOW_3,OFFICE_OPEN_8_REFERENCEPOINT1,2.1649E-003
 Sky Daylight Factors,Overcast Sky,01/01,OFFICE_OPEN_8_DAYLIGHT,OFFICE_OPEN_8,OFFICE_OPEN_8_WINDOW_3,OFFICE_OPEN_8_REFERENCEPOINT1,3.0838E-003
 Sky Daylight Factors,Clear Sky,01/01,OFFICE_OPEN_8_DAYLIGHT,OFFICE_OPEN_8,OFFICE_OPEN_8_WINDOW_4,OFFICE_OPEN_8_REFERENCEPOINT1,4.0344E-003
 Sky Daylight Factors,Clear Turbid Sky,01/01,OFFICE_OPEN_8_DAYLIGHT,OFFICE_OPEN_8,OFFICE_OPEN_8_WINDOW_4,OFFICE_OPEN_8_REFERENCEPOINT1,3.7695E-003
 Sky Daylight Factors,Intermediate Sky,01/01,OFFICE_OPEN_8_DAYLIGHT,OFFICE_OPEN_8,OFFICE_OPEN_8_WINDOW_4,OFFICE_OPEN_8_REFERENCEPOINT1,3.9716E-003
 Sky Daylight Factors,Overcast Sky,01/01,OFFICE_OPEN_8_DAYLIGHT,OFFICE_OPEN_8,OFFICE_OPEN_8_WINDOW_4,OFFICE_OPEN_8_REFERENCEPOINT1,3.5967E-003
 Sky Daylight Factors,Clear Sky,01/01,CONFERENCE_9_DAYLIGHT,CONFERENCE_9,CONFERENCE_9_WINDOW_1,CONFERENCE_9_REFERENCEPOINT1,7.0521E-003
 Sky Daylight Factors,Clear Turbid Sky,01/01,CONFERENCE_9_DAYLIGHT,CONFERENCE_9,CONFERENCE_9_WINDOW_1,CONFERENCE_9_REFERENCEPOINT1,7.8141E-003
 Sky Daylight Factors,Intermediate Sky,01/01,CONFERENCE_9_DAYLIGHT,CONFERENCE_9,CONFERENCE_9_WINDOW_1,CONFERENCE_9_REFERENCEPOINT1,5.1446E-003
 Sky Daylight Factors,Overcast Sky,01/01,CONFERENCE_9_DAYLIGHT,CONFERENCE_9,CONFERENCE_9_WINDOW_1,CONFERENCE_9_REFERENCEPOINT1,2.5318E-003
 Sky Daylight Factors,Clear Sky,01/01,CONFERENCE_9_DAYLIGHT,CONFERENCE_9,CONFERENCE_9_WINDOW_2,CONFERENCE_9_REFERENCEPOINT1,6.2188E-003
 Sky Daylight Factors,Clear Turbid Sky,01/01,CONFERENCE_9_DAYLIGHT,CONFERENCE_9,CONFERENCE_9_WINDOW_2,CONFERENCE_9_REFERENCEPOINT1,5.9096E-003
 Sky Daylight Factors,Intermediate Sky,01/01,CONFERENCE_9_DAYLIGHT,CONFERENCE_9,CONFERENCE_9_WINDOW_2,CONFERENCE_9_REFERENCEPOINT1,5.8055E-003
 Sky Daylight Factors,Overcast Sky,01/01,CONFERENCE_9_DAYLIGHT,CONFERENCE_9,CONFERENCE_9_WINDOW_2,CONFERENCE_9_REFERENCEPOINT1,4.8645E-003
 Sky Daylight Factors,Clear Sky,01/01,CONFERENCE_9_DAYLIGHT,CONFERENCE_9,CONFERENCE_9_WINDOW_3,CONFERENCE_9_REFERENCEPOINT1,4.9333E-003
 Sky Daylight Factors,Clear Turbid Sky,01/01,CONFERENCE_9_DAYLIGHT,CONFERENCE_9,CONFERENCE_9_WINDOW_3,CONFERENCE_9_REFERENCEPOINT1,3.9660E-003
 Sky Daylight Factors,Intermediate Sky,01/01,CONFERENCE_9_DAYLIGHT,CONFERENCE_9,CONFERENCE_9_WINDOW_3,CONFERENCE_9_REFERENCEPOINT1,3.5181E-003
 Sky Daylight Factors,Overcast Sky,01/01,CONFERENCE_9_DAYLIGHT,CONFERENCE_9,CONFERENCE_9_WINDOW_3,CONFERENCE_9_REFERENCEPOINT1,5.1440E-003
 Sky Daylight Factors,Clear Sky,01/01,CONFERENCE_9_DAYLIGHT,CONFERENCE_9,CONFERENCE_9_WINDOW_4,CONFERENCE_9_REFERENCEPOINT1,5.2779E-003
 Sky Daylight Factors,Clear Turbid Sky,01/01,CONFERENCE_9_DAYLIGHT,CONFERENCE_9,CONFERENCE_9_WINDOW_4,CONFERENCE_9_REFERENCEPOINT1,4.8247E-003
 Sky Daylight Factors,Intermediate Sky,01/01,CONFERENCE_9_DAYLIGHT,CONFERENCE_9,CONFERENCE_9_WINDOW_4,CONFERENCE_9_REFERENCEPOINT1,4.9819E-003
 Sky Daylight Factors,Overcast Sky,01/01,CONFERENCE_9_DAYLIGHT,CONFERENCE_9,CONFERENCE_9_WINDOW_4,CONFERENCE_9_REFERENCEPOINT1,4.5104E-003
 Sky Daylight Factors,Clear Sky,01/01,BREAK_ROOM_9_DAYLIGHT,BREAK_ROOM_9,BREAK_ROOM_9_WINDOW_1,BREAK_ROOM_9_REFERENCEPOINT1,6.1009E-003
 Sky Daylight Factors,Clear Turbid Sky,01/01,BREAK_ROOM_9_DAYLIGHT,BREAK_ROOM_9,BREAK_ROOM_9_WINDOW_1,BREAK_ROOM_9_REFERENCEPOINT1,6.7424E-003
 Sky Daylight Factors,Intermediate Sky,01/01,BREAK_ROOM_9_DAYLIGHT,BREAK_ROOM_9,BREAK_ROOM_9_WINDOW_1,BREAK_ROOM_9_REFERENCEPOINT1,4.4949E-003
 Sky Daylight Factors,Overcast Sky,01/01,BREAK_ROOM_9_DAYLIGHT,BREAK_ROOM_9,BREAK_ROOM_9_WINDOW_1,BREAK_ROOM_9_REFERENCEPOINT1,2.2951E-003
 Sky Daylight Factors,Clear Sky,01/01,BREAK_ROOM_9_DAYLIGHT,BREAK_ROOM_9,BREAK_ROOM_9_WINDOW_2,BREAK_ROOM_9_REFERENCEPOINT1,6.0243E-003
 Sky Daylight Factors,Clear Turbid Sky,01/01,BREAK_ROOM_9_DAYLIGHT,BREAK_ROOM_9,BREAK_ROOM_9_WINDOW_2,BREAK_ROOM_9_REFERENCEPOINT1,5.7202E-003
 Sky Daylight Factors,Intermediate Sky,01/01,BREAK_ROOM_9_DAYLIGHT,BREAK_ROOM_9,BREAK_ROOM_9_WINDOW_2,BREAK_ROOM_9_REFERENCEPOINT1,5.6178E-003
 Sky Daylight Factors,Overcast Sky,01/01,BREAK_ROOM_9_DAYLIGHT,BREAK_ROOM_9,BREAK_ROOM_9_WINDOW_2,BREAK_ROOM_9_REFERENCEPOINT1,4.6925E-003
 Sky Daylight Factors,Clear Sky,01/01,BREAK_ROOM_9_DAYLIGHT,BREAK_ROOM_9,BREAK_ROOM_9_WINDOW_3,BREAK_ROOM_9_REFERENCEPOINT1,4.2146E-003
 Sky Daylight Factors,Clear Turbid Sky,01/01,BREAK_ROOM_9_DAYLIGHT,BREAK_ROOM_9,BREAK_ROOM_9_WINDOW_3,BREAK_ROOM_9_REFERENCEPOINT1,3.4018E-003
 Sky Daylight Factors,Intermediate Sky,01/01,BREAK_ROOM_9_DAYLIGHT,BREAK_ROOM_9,BREAK_ROOM_9_WINDOW_3,BREAK_ROOM_9_REFERENCEPOINT1,3.0253E-003
 Sky Daylight Factors,Overcast Sky,01/01,BREAK_ROOM_9_DAYLIGHT,BREAK_ROOM_9,BREAK_ROOM_9_WINDOW_3,BREAK_ROOM_9_REFERENCEPOINT1,4.3917E-003
 Sky Daylight Factors,Clear Sky,01/01,BREAK_ROOM_9_DAYLIGHT,BREAK_ROOM_9,BREAK_ROOM_9_WINDOW_4,BREAK_ROOM_9_REFERENCEPOINT1,4.9286E-003
 Sky Daylight Factors,Clear Turbid Sky,01/01,BREAK_ROOM_9_DAYLIGHT,BREAK_ROOM_9,BREAK_ROOM_9_WINDOW_4,BREAK_ROOM_9_REFERENCEPOINT1,4.4829E-003
 Sky Daylight Factors,Intermediate Sky,01/01,BREAK_ROOM_9_DAYLIGHT,BREAK_ROOM_9,BREAK_ROOM_9_WINDOW_4,BREAK_ROOM_9_REFERENCEPOINT1,4.6375E-003
 Sky Daylight Factors,Overcast Sky,01/01,BREAK_ROOM_9_DAYLIGHT,BREAK_ROOM_9,BREAK_ROOM_9_WINDOW_4,BREAK_ROOM_9_REFERENCEPOINT1,4.1740E-003
 Sky Daylight Factors,Clear Sky,01/01,OFFICE_OPEN_9_DAYLIGHT,OFFICE_OPEN_9,OFFICE_OPEN_9_WINDOW_1,OFFICE_OPEN_9_REFERENCEPOINT1,4.2873E-003
 Sky Daylight Factors,Clear Turbid Sky,01/01,OFFICE_OPEN_9_DAYLIGHT,OFFICE_OPEN_9,OFFICE_OPEN_9_WINDOW_1,OFFICE_OPEN_9_REFERENCEPOINT1,4.7413E-003
 Sky Daylight Factors,Intermediate Sky,01/01,OFFICE_OPEN_9_DAYLIGHT,OFFICE_OPEN_9,OFFICE_OPEN_9_WINDOW_1,OFFICE_OPEN_9_REFERENCEPOINT1,3.1508E-003
 Sky Daylight Factors,Overcast Sky,01/01,OFFICE_OPEN_9_DAYLIGHT,OFFICE_OPEN_9,OFFICE_OPEN_9_WINDOW_1,OFFICE_OPEN_9_REFERENCEPOINT1,1.5940E-003
 Sky Daylight Factors,Clear Sky,01/01,OFFICE_OPEN_9_DAYLIGHT,OFFICE_OPEN_9,OFFICE_OPEN_9_WINDOW_2,OFFICE_OPEN_9_REFERENCEPOINT1,5.2033E-003
 Sky Daylight Factors,Clear Turbid Sky,01/01,OFFICE_OPEN_9_DAYLIGHT,OFFICE_OPEN_9,OFFICE_OPEN_9_WINDOW_2,OFFICE_OPEN_9_REFERENCEPOINT1,4.9459E-003
 Sky Daylight Factors,Intermediate Sky,01/01,OFFICE_OPEN_9_DAYLIGHT,OFFICE_OPEN_9,OFFICE_OPEN_9_WINDOW_2,OFFICE_OPEN_9_REFERENCEPOINT1,4.8592E-003
 Sky Daylight Factors,Overcast Sky,01/01,OFFICE_OPEN_9_DAYLIGHT,OFFICE_OPEN_9,OFFICE_OPEN_9_WINDOW_2,OFFICE_OPEN_9_REFERENCEPOINT1,4.0757E-003
 Sky Daylight Factors,Clear Sky,01/01,OFFICE_OPEN_9_DAYLIGHT,OFFICE_OPEN_9,OFFICE_OPEN_9_WINDOW_3,OFFICE_OPEN_9_REFERENCEPOINT1,3.1328E-003
 Sky Daylight Factors,Clear Turbid Sky,01/01,OFFICE_OPEN_9_DAYLIGHT,OFFICE_OPEN_9,OFFICE_OPEN_9_WINDOW_3,OFFICE_OPEN_9_REFERENCEPOINT1,2.5591E-003
 Sky Daylight Factors,Intermediate Sky,01/01,OFFICE_OPEN_9_DAYLIGHT,OFFICE_OPEN_9,OFFICE_OPEN_9_WINDOW_3,OFFICE_OPEN_9_REFERENCEPOINT1,2.2934E-003
 Sky Daylight Factors,Overcast Sky,01/01,OFFICE_OPEN_9_DAYLIGHT,OFFICE_OPEN_9,OFFICE_OPEN_9_WINDOW_3,OFFICE_OPEN_9_REFERENCEPOINT1,3.2578E-003
 Sky Daylight Factors,Clear Sky,01/01,OFFICE_OPEN_9_DAYLIGHT,OFFICE_OPEN_9,OFFICE_OPEN_9_WINDOW_4,OFFICE_OPEN_9_REFERENCEPOINT1,4.7038E-003
 Sky Daylight Factors,Clear Turbid Sky,01/01,OFFICE_OPEN_9_DAYLIGHT,OFFICE_OPEN_9,OFFICE_OPEN_9_WINDOW_4,OFFICE_OPEN_9_REFERENCEPOINT1,4.3264E-003
 Sky Daylight Factors,Intermediate Sky,01/01,OFFICE_OPEN_9_DAYLIGHT,OFFICE_OPEN_9,OFFICE_OPEN_9_WINDOW_4,OFFICE_OPEN_9_REFERENCEPOINT1,4.4573E-003
 Sky Daylight Factors,Overcast Sky,01/01,OFFICE_OPEN_9_DAYLIGHT,OFFICE_OPEN_9,OFFICE_OPEN_9_WINDOW_4,OFFICE_OPEN_9_REFERENCEPOINT1,4.0648E-003
 Sky Daylight Factors,Clear Sky,01/01,OFFICE_PRIVATE_9_DAYLIGHT,OFFICE_PRIVATE_9,OFFICE_PRIVATE_9_WINDOW_1,OFFICE_PRIVATE_9_REFERENCEPOINT1,7.6221E-003
 Sky Daylight Factors,Clear Turbid Sky,01/01,OFFICE_PRIVATE_9_DAYLIGHT,OFFICE_PRIVATE_9,OFFICE_PRIVATE_9_WINDOW_1,OFFICE_PRIVATE_9_REFERENCEPOINT1,8.4137E-003
 Sky Daylight Factors,Intermediate Sky,01/01,OFFICE_PRIVATE_9_DAYLIGHT,OFFICE_PRIVATE_9,OFFICE_PRIVATE_9_WINDOW_1,OFFICE_PRIVATE_9_REFERENCEPOINT1,5.6405E-003
 Sky Daylight Factors,Overcast Sky,01/01,OFFICE_PRIVATE_9_DAYLIGHT,OFFICE_PRIVATE_9,OFFICE_PRIVATE_9_WINDOW_1,OFFICE_PRIVATE_9_REFERENCEPOINT1,2.9260E-003
 Sky Daylight Factors,Clear Sky,01/01,OFFICE_PRIVATE_9_DAYLIGHT,OFFICE_PRIVATE_9,OFFICE_PRIVATE_9_WINDOW_2,OFFICE_PRIVATE_9_REFERENCEPOINT1,6.5238E-003
 Sky Daylight Factors,Clear Turbid Sky,01/01,OFFICE_PRIVATE_9_DAYLIGHT,OFFICE_PRIVATE_9,OFFICE_PRIVATE_9_WINDOW_2,OFFICE_PRIVATE_9_REFERENCEPOINT1,6.1889E-003
 Sky Daylight Factors,Intermediate Sky,01/01,OFFICE_PRIVATE_9_DAYLIGHT,OFFICE_PRIVATE_9,OFFICE_PRIVATE_9_WINDOW_2,OFFICE_PRIVATE_9_REFERENCEPOINT1,6.0762E-003
 Sky Daylight Factors,Overcast Sky,01/01,OFFICE_PRIVATE_9_DAYLIGHT,OFFICE_PRIVATE_9,OFFICE_PRIVATE_9_WINDOW_2,OFFICE_PRIVATE_9_REFERENCEPOINT1,5.0571E-003
 Sky Daylight Factors,Clear Sky,01/01,OFFICE_PRIVATE_9_DAYLIGHT,OFFICE_PRIVATE_9,OFFICE_PRIVATE_9_WINDOW_3,OFFICE_PRIVATE_9_REFERENCEPOINT1,5.4845E-003
 Sky Daylight Factors,Clear Turbid Sky,01/01,OFFICE_PRIVATE_9_DAYLIGHT,OFFICE_PRIVATE_9,OFFICE_PRIVATE_9_WINDOW_3,OFFICE_PRIVATE_9_REFERENCEPOINT1,4.4793E-003
 Sky Daylight Factors,Intermediate Sky,01/01,OFFICE_PRIVATE_9_DAYLIGHT,OFFICE_PRIVATE_9,OFFICE_PRIVATE_9_WINDOW_3,OFFICE_PRIVATE_9_REFERENCEPOINT1,4.0138E-003
 Sky Daylight Factors,Overcast Sky,01/01,OFFICE_PRIVATE_9_DAYLIGHT,OFFICE_PRIVATE_9,OFFICE_PRIVATE_9_WINDOW_3,OFFICE_PRIVATE_9_REFERENCEPOINT1,5.7035E-003
 Sky Daylight Factors,Clear Sky,01/01,OFFICE_PRIVATE_9_DAYLIGHT,OFFICE_PRIVATE_9,OFFICE_PRIVATE_9_WINDOW_4,OFFICE_PRIVATE_9_REFERENCEPOINT1,6.1814E-003
 Sky Daylight Factors,Clear Turbid Sky,01/01,OFFICE_PRIVATE_9_DAYLIGHT,OFFICE_PRIVATE_9,OFFICE_PRIVATE_9_WINDOW_4,OFFICE_PRIVATE_9_REFERENCEPOINT1,5.6905E-003
 Sky Daylight Factors,Intermediate Sky,01/01,OFFICE_PRIVATE_9_DAYLIGHT,OFFICE_PRIVATE_9,OFFICE_PRIVATE_9_WINDOW_4,OFFICE_PRIVATE_9_REFERENCEPOINT1,5.8608E-003
 Sky Daylight Factors,Overcast Sky,01/01,OFFICE_PRIVATE_9_DAYLIGHT,OFFICE_PRIVATE_9,OFFICE_PRIVATE_9_WINDOW_4,OFFICE_PRIVATE_9_REFERENCEPOINT1,5.3502E-003
Environment:WarmupDays,  6
! <Warmup Convergence Information>,Zone Name,Environment Type/Name,Average Warmup Temperature Difference {deltaC},Std Dev Warmup Temperature Difference {deltaC},Max Temperature Pass/Fail Convergence,Min Temperature Pass/Fail Convergence,Average Warmup Load Difference {W},Std Dev Warmup Load Difference {W},Heating Load Pass/Fail Convergence,Cooling Load Pass/Fail Convergence
 Warmup Convergence Information,CONFERENCE_0,RunPeriod: YEAR ROUND RUN PERIOD,0.2135855704,0.2075187968,Pass,Pass,4.2377957254E-002,6.0166462759E-002,Pass,Pass
 Warmup Convergence Information,MECHANICAL_0,RunPeriod: YEAR ROUND RUN PERIOD,0.1947495075,0.1858221755,Pass,Pass,3.0757724915E-002,3.8389593570E-002,Pass,Pass
 Warmup Convergence Information,OFFICE_OPEN_0,RunPeriod: YEAR ROUND RUN PERIOD,0.1746580930,0.1542011047,Pass,Pass,2.5535085835E-002,2.8783168644E-002,Pass,Pass
 Warmup Convergence Information,STORAGE_0,RunPeriod: YEAR ROUND RUN PERIOD,0.2083884569,0.1988616953,Pass,Pass,3.6598186896E-002,4.7975191663E-002,Pass,Pass
 Warmup Convergence Information,LOBBY_1,RunPeriod: YEAR ROUND RUN PERIOD,0.1700075611,0.1520988383,Pass,Pass,2.3533307639E-002,2.6302703165E-002,Pass,Pass
 Warmup Convergence Information,CONFERENCE_1,RunPeriod: YEAR ROUND RUN PERIOD,0.2013028135,0.1833954001,Pass,Pass,3.3425505731E-002,4.0891762416E-002,Pass,Pass
 Warmup Convergence Information,BREAK_ROOM_1,RunPeriod: YEAR ROUND RUN PERIOD,0.1929062438,0.1779184691,Pass,Pass,3.2519088244E-002,4.0319799047E-002,Pass,Pass
 Warmup Convergence Information,OFFICE_PRIVATE_1,RunPeriod: YEAR ROUND RUN PERIOD,0.2067740451,0.1971586957,Pass,Pass,3.6074511197E-002,4.6544749485E-002,Pass,Pass
 Warmup Convergence Information,CONFERENCE_2,RunPeriod: YEAR ROUND RUN PERIOD,0.1743702340,0.1550028115,Pass,Pass,2.4780659412E-002,2.7183245741E-002,Pass,Pass
 Warmup Convergence Information,BREAK_ROOM_2,RunPeriod: YEAR ROUND RUN PERIOD,0.1935405354,0.1794834220,Pass,Pass,3.2866113913E-002,4.1413191364E-002,Pass,Pass
 Warmup Convergence Information,MECHANICAL_2,RunPeriod: YEAR ROUND RUN PERIOD,0.2362061971,0.2362838683,Pass,Pass,5.3602556703E-002,8.5991720681E-002,Pass,Pass
 Warmup Convergence Information,OFFICE_OPEN_2,RunPeriod: YEAR ROUND RUN PERIOD,0.1479393463,0.1187280647,Pass,Pass,1.8142851526E-002,1.7303434566E-002,Pass,Pass
 Warmup Convergence Information,CONFERENCE_3,RunPeriod: YEAR ROUND RUN PERIOD,0.1837687176,0.1697288676,Pass,Pass,2.7829038847E-002,3.3288574476E-002,Pass,Pass
 Warmup Convergence Information,MECHANICAL_3,RunPeriod: YEAR ROUND RUN PERIOD,0.1925500968,0.1763087852,Pass,Pass,2.9289163708E-002,3.4643119068E-002,Pass,Pass
 Warmup Convergence Information,OFFICE_OPEN_3,RunPeriod: YEAR ROUND RUN PERIOD,0.1619044863,0.1369340772,Pass,Pass,2.1544277099E-002,2.2306063174E-002,Pass,Pass
 Warmup Convergence Information,STORAGE_3,RunPeriod: YEAR ROUND RUN PERIOD,0.2283605075,0.2253578313,Pass,Pass,4.7829345121E-002,7.2174258901E-002,Pass,Pass
 Warmup Convergence Information,LOBBY_4,RunPeriod: YEAR ROUND RUN PERIOD,0.1613458255,0.1388183408,Pass,Pass,2.1187868078E-002,2.2409446279E-002,Pass,Pass
 Warmup Convergence Information,CONFERENCE_4,RunPeriod: YEAR ROUND RUN PERIOD,0.1944088149,0.1793442794,Pass,Pass,3.2010379159E-002,3.9560289707E-002,Pass,Pass
 Warmup Convergence Information,BREAK_ROOM_4,RunPeriod: YEAR ROUND RUN PERIOD,0.1944657974,0.1829326378,Pass,Pass,3.2811889455E-002,4.1743710457E-002,Pass,Pass
 Warmup Convergence Information,MECHANICAL_4,RunPeriod: YEAR ROUND RUN PERIOD,0.1903926662,0.1775351383,Pass,Pass,2.8314645535E-002,3.4058369309E-002,Pass,Pass
 Warmup Convergence Information,OFFICE_OPEN_4,RunPeriod: YEAR ROUND RUN PERIOD,0.1474742054,0.1200993635,Pass,Pass,1.7939811821E-002,1.7363751353E-002,Pass,Pass
 Warmup Convergence Information,CONFERENCE_5,RunPeriod: YEAR ROUND RUN PERIOD,0.1916154326,0.1742773986,Pass,Pass,3.0597484964E-002,3.6767188831E-002,Pass,Pass
 Warmup Convergence Information,BREAK_ROOM_5,RunPeriod: YEAR ROUND RUN PERIOD,0.1896485680,0.1772411037,Pass,Pass,3.0570135697E-002,3.7451857401E-002,Pass,Pass
 Warmup Convergence Information,MECHANICAL_5,RunPeriod: YEAR ROUND RUN PERIOD,0.1891819415,0.1759745763,Pass,Pass,2.7534016169E-002,3.2383519412E-002,Pass,Pass
 Warmup Convergence Information,OFFICE_PRIVATE_5,RunPeriod: YEAR ROUND RUN PERIOD,0.2195610267,0.2076473623,Pass,Pass,4.3998280537E-002,6.2697565425E-002,Pass,Pass
 Warmup Convergence Information,OFFICE_PRIVATE_6,RunPeriod: YEAR ROUND RUN PERIOD,0.2229697261,0.2131175115,Pass,Pass,4.4256915459E-002,6.2077955222E-002,Pass,Pass
 Warmup Convergence Information,LOBBY_7,RunPeriod: YEAR ROUND RUN PERIOD,0.1721330633,0.1517402001,Pass,Pass,2.3598787186E-002,2.6014144642E-002,Pass,Pass
 Warmup Convergence Information,BREAK_ROOM_7,RunPeriod: YEAR ROUND RUN PERIOD,0.2352647517,0.2231372810,Pass,Pass,6.5459202895E-002,0.1217432469,Pass,Pass
 Warmup Convergence Information,MECHANICAL_7,RunPeriod: YEAR ROUND RUN PERIOD,0.1907661575,0.1745471761,Pass,Pass,2.8222575629E-002,3.3114284154E-002,Pass,Pass
 Warmup Convergence Information,OFFICE_OPEN_7,RunPeriod: YEAR ROUND RUN PERIOD,0.1571435624,0.1288492582,Pass,Pass,2.0012692290E-002,1.9932182541E-002,Pass,Pass
 Warmup Convergence Information,OFFICE_PRIVATE_7,RunPeriod: YEAR ROUND RUN PERIOD,0.2105491171,0.1976089617,Pass,Pass,3.8608722779E-002,5.1188845304E-002,Pass,Pass
 Warmup Convergence Information,STORAGE_7,RunPeriod: YEAR ROUND RUN PERIOD,0.2343547853,0.2283881051,Pass,Pass,5.1766467203E-002,8.0674510188E-002,Pass,Pass
 Warmup Convergence Information,CONFERENCE_8,RunPeriod: YEAR ROUND RUN PERIOD,0.2174534356,0.2117415836,Pass,Pass,4.2157576792E-002,5.9832556067E-002,Pass,Pass
 Warmup Convergence Information,BREAK_ROOM_8,RunPeriod: YEAR ROUND RUN PERIOD,0.1906207525,0.1746796326,Pass,Pass,3.0745770916E-002,3.7716596680E-002,Pass,Pass
 Warmup Convergence Information,MECHANICAL_8,RunPeriod: YEAR ROUND RUN PERIOD,0.1871962911,0.1691068046,Pass,Pass,2.6931818250E-002,3.0913781504E-002,Pass,Pass
 Warmup Convergence Information,OFFICE_OPEN_8,RunPeriod: YEAR ROUND RUN PERIOD,0.1641604003,0.1403756504,Pass,Pass,2.1728043669E-002,2.2960420793E-002,Pass,Pass
 Warmup Convergence Information,STORAGE_8,RunPeriod: YEAR ROUND RUN PERIOD,0.2057903074,0.1962954320,Pass,Pass,3.3753363669E-002,4.3128983853E-002,Pass,Pass
 Warmup Convergence Information,CONFERENCE_9,RunPeriod: YEAR ROUND RUN PERIOD,0.1984643566,0.1820237843,Pass,Pass,3.2852568379E-002,4.0493589239E-002,Pass,Pass
 Warmup Convergence Information,BREAK_ROOM_9,RunPeriod: YEAR ROUND RUN PERIOD,0.1879247606,0.1698879407,Pass,Pass,2.9598543180E-002,3.5323293586E-002,Pass,Pass
 Warmup Convergence Information,MECHANICAL_9,RunPeriod: YEAR ROUND RUN PERIOD,0.2085236670,0.2023658462,Pass,Pass,3.4443605923E-002,4.4875573744E-002,Pass,Pass
 Warmup Convergence Information,OFFICE_OPEN_9,RunPeriod: YEAR ROUND RUN PERIOD,0.1650297629,0.1428565115,Pass,Pass,2.1920896206E-002,2.3454633194E-002,Pass,Pass
 Warmup Convergence Information,OFFICE_PRIVATE_9,RunPeriod: YEAR ROUND RUN PERIOD,0.2079903555,0.1944507158,Pass,Pass,3.6924883792E-002,4.8004503505E-002,Pass,Pass
! <Program Control Information:Threads/Parallel Sims>, Threading Supported,Maximum Number of Threads, Env Set Threads (OMP_NUM_THREADS), EP Env Set Threads (EP_OMP_NUM_THREADS), IDF Set Threads, Number of Threads Used (Interior Radiant Exchange), Number Nominal Surfaces, Number Parallel Sims
Program Control:Threads/Parallel Sims, No,1, N/A, N/A, N/A, N/A, N/A, N/A
End of Data
