Program Version,EnergyPlus, Version 24.2.0-94a887817b, YMD=2025.11.02 18:51,
   ** Warning ** Site:GroundTemperature:BuildingSurface: Some values fall outside the range of 15-25C.
   **   ~~~   ** These values may be inappropriate.  Please consult the Input Output Reference for more details.
   ** Warning ** Weather file location will be used rather than entered (IDF) Location object.
   **   ~~~   ** ..Location object=SITE
   **   ~~~   ** ..Weather File Location=Chicago Ohare Intl Ap IL USA TMY3 WMO#=725300
   **   ~~~   ** ..due to location differences, Latitude difference=[0.10] degrees, Longitude difference=[0.28] degrees.
   **   ~~~   ** ..Time Zone difference=[2.0] hour(s), Elevation difference=[1910.00] percent, [191.00] meters.
   ** Warning ** ProcessScheduleInput: Schedule:Compact="BREAK_ROOM_LIGHTING" has missing day types in Through=12/31
   **   ~~~   ** Last "For" field=FOR: WEEKENDS
   **   ~~~   ** Missing day types="Holiday","SummerDesignDay","WinterDesignDay","CustomDay1","CustomDay2"
   **   ~~~   ** Missing day types will have 0.0 as Schedule Values
   ** Warning ** ProcessScheduleInput: Schedule:Compact="BREAK_ROOM_EQUIPMENT" has missing day types in Through=12/31
   **   ~~~   ** Last "For" field=FOR: WEEKENDS
   **   ~~~   ** Missing day types="Holiday","SummerDesignDay","WinterDesignDay","CustomDay1","CustomDay2"
   **   ~~~   ** Missing day types will have 0.0 as Schedule Values
   ** Warning ** ProcessScheduleInput: Schedule:Compact="CONFERENCE_OCCUPANCY" has missing day types in Through=12/31
   **   ~~~   ** Last "For" field=FOR: WEEKENDS
   **   ~~~   ** Missing day types="Holiday","SummerDesignDay","WinterDesignDay","CustomDay1","CustomDay2"
   **   ~~~   ** Missing day types will have 0.0 as Schedule Values
   ** Warning ** ProcessScheduleInput: Schedule:Compact="CONFERENCE_LIGHTING" has missing day types in Through=12/31
   **   ~~~   ** Last "For" field=FOR: WEEKENDS
   **   ~~~   ** Missing day types="Holiday","SummerDesignDay","WinterDesignDay","CustomDay1","CustomDay2"
   **   ~~~   ** Missing day types will have 0.0 as Schedule Values
   ** Warning ** ProcessScheduleInput: Schedule:Compact="CONFERENCE_EQUIPMENT" has missing day types in Through=12/31
   **   ~~~   ** Last "For" field=FOR: WEEKENDS
   **   ~~~   ** Missing day types="Holiday","SummerDesignDay","WinterDesignDay","CustomDay1","CustomDay2"
   **   ~~~   ** Missing day types will have 0.0 as Schedule Values
   ** Warning ** ProcessScheduleInput: Schedule:Compact="LOBBY_LIGHTING" has missing day types in Through=12/31
   **   ~~~   ** Last "For" field=FOR: WEEKENDS
   **   ~~~   ** Missing day types="Holiday","SummerDesignDay","WinterDesignDay","CustomDay1","CustomDay2"
   **   ~~~   ** Missing day types will have 0.0 as Schedule Values
   ** Warning ** ProcessScheduleInput: Schedule:Compact="LOBBY_EQUIPMENT" has missing day types in Through=12/31
   **   ~~~   ** Last "For" field=FOR: WEEKENDS
   **   ~~~   ** Missing day types="Holiday","SummerDesignDay","WinterDesignDay","CustomDay1","CustomDay2"
   **   ~~~   ** Missing day types will have 0.0 as Schedule Values
   ** Warning ** ProcessScheduleInput: Schedule:Compact="MECHANICAL_LIGHTING" has missing day types in Through=12/31
   **   ~~~   ** Last "For" field=FOR: WEEKENDS
   **   ~~~   ** Missing day types="Holiday","SummerDesignDay","WinterDesignDay","CustomDay1","CustomDay2"
   **   ~~~   ** Missing day types will have 0.0 as Schedule Values
   ** Warning ** ProcessScheduleInput: Schedule:Compact="MECHANICAL_EQUIPMENT" has missing day types in Through=12/31
   **   ~~~   ** Last "For" field=FOR: WEEKENDS
   **   ~~~   ** Missing day types="Holiday","SummerDesignDay","WinterDesignDay","CustomDay1","CustomDay2"
   **   ~~~   ** Missing day types will have 0.0 as Schedule Values
   ** Warning ** ProcessScheduleInput: Schedule:Compact="OFFICE_OPEN_OCCUPANCY" has missing day types in Through=12/31
   **   ~~~   ** Last "For" field=FOR: WEEKENDS
   **   ~~~   ** Missing day types="Holiday","SummerDesignDay","WinterDesignDay","CustomDay1","CustomDay2"
   **   ~~~   ** Missing day types will have 0.0 as Schedule Values
   ** Warning ** ProcessScheduleInput: Schedule:Compact="OFFICE_OPEN_LIGHTING" has missing day types in Through=12/31
   **   ~~~   ** Last "For" field=FOR: WEEKENDS
   **   ~~~   ** Missing day types="Holiday","SummerDesignDay","WinterDesignDay","CustomDay1","CustomDay2"
   **   ~~~   ** Missing day types will have 0.0 as Schedule Values
   ** Warning ** ProcessScheduleInput: Schedule:Compact="OFFICE_OPEN_EQUIPMENT" has missing day types in Through=12/31
   **   ~~~   ** Last "For" field=FOR: WEEKENDS
   **   ~~~   ** Missing day types="Holiday","SummerDesignDay","WinterDesignDay","CustomDay1","CustomDay2"
   **   ~~~   ** Missing day types will have 0.0 as Schedule Values
   ** Warning ** ProcessScheduleInput: Schedule:Compact="STORAGE_LIGHTING" has missing day types in Through=12/31
   **   ~~~   ** Last "For" field=FOR: WEEKENDS
   **   ~~~   ** Missing day types="Holiday","SummerDesignDay","WinterDesignDay","CustomDay1","CustomDay2"
   **   ~~~   ** Missing day types will have 0.0 as Schedule Values
   ** Warning ** ProcessScheduleInput: Schedule:Compact="STORAGE_EQUIPMENT" has missing day types in Through=12/31
   **   ~~~   ** Last "For" field=FOR: WEEKENDS
   **   ~~~   ** Missing day types="Holiday","SummerDesignDay","WinterDesignDay","CustomDay1","CustomDay2"
   **   ~~~   ** Missing day types will have 0.0 as Schedule Values
   ** Warning ** DeterminePolygonOverlap: Too many figures [>15000]  detected in an overlap calculation. Use Output:Diagnostics,DisplayExtraWarnings; for more details.
   ** Warning ** No Glare Calculation Daylighting Reference Point Name provided for object named: LOBBY_0_DAYLIGHT
   **   ~~~   ** No glare calculation performed, and the simulation continues.
   ** Warning ** GetDaylightingControls: Fraction of zone or space controlled by the Daylighting reference points is < 1.0.
   **   ~~~   ** ..discovered in Daylighting:Controls="LOBBY_0_DAYLIGHT", only 0.900 of the zone or space is controlled.
   ** Warning ** No Glare Calculation Daylighting Reference Point Name provided for object named: CONFERENCE_0_DAYLIGHT
   **   ~~~   ** No glare calculation performed, and the simulation continues.
   ** Warning ** GetDaylightingControls: Fraction of zone or space controlled by the Daylighting reference points is < 1.0.
   **   ~~~   ** ..discovered in Daylighting:Controls="CONFERENCE_0_DAYLIGHT", only 0.900 of the zone or space is controlled.
   ** Warning ** No Glare Calculation Daylighting Reference Point Name provided for object named: BREAK_ROOM_0_DAYLIGHT
   **   ~~~   ** No glare calculation performed, and the simulation continues.
   ** Warning ** GetDaylightingControls: Fraction of zone or space controlled by the Daylighting reference points is < 1.0.
   **   ~~~   ** ..discovered in Daylighting:Controls="BREAK_ROOM_0_DAYLIGHT", only 0.900 of the zone or space is controlled.
   ** Warning ** No Glare Calculation Daylighting Reference Point Name provided for object named: OFFICE_PRIVATE_0_DAYLIGHT
   **   ~~~   ** No glare calculation performed, and the simulation continues.
   ** Warning ** GetDaylightingControls: Fraction of zone or space controlled by the Daylighting reference points is < 1.0.
   **   ~~~   ** ..discovered in Daylighting:Controls="OFFICE_PRIVATE_0_DAYLIGHT", only 0.900 of the zone or space is controlled.
   ** Warning ** No Glare Calculation Daylighting Reference Point Name provided for object named: CONFERENCE_1_DAYLIGHT
   **   ~~~   ** No glare calculation performed, and the simulation continues.
   ** Warning ** GetDaylightingControls: Fraction of zone or space controlled by the Daylighting reference points is < 1.0.
   **   ~~~   ** ..discovered in Daylighting:Controls="CONFERENCE_1_DAYLIGHT", only 0.900 of the zone or space is controlled.
   ** Warning ** No Glare Calculation Daylighting Reference Point Name provided for object named: BREAK_ROOM_1_DAYLIGHT
   **   ~~~   ** No glare calculation performed, and the simulation continues.
   ** Warning ** GetDaylightingControls: Fraction of zone or space controlled by the Daylighting reference points is < 1.0.
   **   ~~~   ** ..discovered in Daylighting:Controls="BREAK_ROOM_1_DAYLIGHT", only 0.900 of the zone or space is controlled.
   ** Warning ** No Glare Calculation Daylighting Reference Point Name provided for object named: OFFICE_PRIVATE_1_DAYLIGHT
   **   ~~~   ** No glare calculation performed, and the simulation continues.
   ** Warning ** GetDaylightingControls: Fraction of zone or space controlled by the Daylighting reference points is < 1.0.
   **   ~~~   ** ..discovered in Daylighting:Controls="OFFICE_PRIVATE_1_DAYLIGHT", only 0.900 of the zone or space is controlled.
   ** Warning ** No Glare Calculation Daylighting Reference Point Name provided for object named: LOBBY_2_DAYLIGHT
   **   ~~~   ** No glare calculation performed, and the simulation continues.
   ** Warning ** GetDaylightingControls: Fraction of zone or space controlled by the Daylighting reference points is < 1.0.
   **   ~~~   ** ..discovered in Daylighting:Controls="LOBBY_2_DAYLIGHT", only 0.900 of the zone or space is controlled.
   ** Warning ** No Glare Calculation Daylighting Reference Point Name provided for object named: CONFERENCE_2_DAYLIGHT
   **   ~~~   ** No glare calculation performed, and the simulation continues.
   ** Warning ** GetDaylightingControls: Fraction of zone or space controlled by the Daylighting reference points is < 1.0.
   **   ~~~   ** ..discovered in Daylighting:Controls="CONFERENCE_2_DAYLIGHT", only 0.900 of the zone or space is controlled.
   ** Warning ** No Glare Calculation Daylighting Reference Point Name provided for object named: BREAK_ROOM_2_DAYLIGHT
   **   ~~~   ** No glare calculation performed, and the simulation continues.
   ** Warning ** GetDaylightingControls: Fraction of zone or space controlled by the Daylighting reference points is < 1.0.
   **   ~~~   ** ..discovered in Daylighting:Controls="BREAK_ROOM_2_DAYLIGHT", only 0.900 of the zone or space is controlled.
   ** Warning ** No Glare Calculation Daylighting Reference Point Name provided for object named: OFFICE_OPEN_2_DAYLIGHT
   **   ~~~   ** No glare calculation performed, and the simulation continues.
   ** Warning ** GetDaylightingControls: Fraction of zone or space controlled by the Daylighting reference points is < 1.0.
   **   ~~~   ** ..discovered in Daylighting:Controls="OFFICE_OPEN_2_DAYLIGHT", only 0.900 of the zone or space is controlled.
   ** Warning ** No Glare Calculation Daylighting Reference Point Name provided for object named: OFFICE_PRIVATE_2_DAYLIGHT
   **   ~~~   ** No glare calculation performed, and the simulation continues.
   ** Warning ** GetDaylightingControls: Fraction of zone or space controlled by the Daylighting reference points is < 1.0.
   **   ~~~   ** ..discovered in Daylighting:Controls="OFFICE_PRIVATE_2_DAYLIGHT", only 0.900 of the zone or space is controlled.
   ** Warning ** No Glare Calculation Daylighting Reference Point Name provided for object named: LOBBY_3_DAYLIGHT
   **   ~~~   ** No glare calculation performed, and the simulation continues.
   ** Warning ** GetDaylightingControls: Fraction of zone or space controlled by the Daylighting reference points is < 1.0.
   **   ~~~   ** ..discovered in Daylighting:Controls="LOBBY_3_DAYLIGHT", only 0.900 of the zone or space is controlled.
   ** Warning ** No Glare Calculation Daylighting Reference Point Name provided for object named: CONFERENCE_3_DAYLIGHT
   **   ~~~   ** No glare calculation performed, and the simulation continues.
   ** Warning ** GetDaylightingControls: Fraction of zone or space controlled by the Daylighting reference points is < 1.0.
   **   ~~~   ** ..discovered in Daylighting:Controls="CONFERENCE_3_DAYLIGHT", only 0.900 of the zone or space is controlled.
   ** Warning ** No Glare Calculation Daylighting Reference Point Name provided for object named: BREAK_ROOM_3_DAYLIGHT
   **   ~~~   ** No glare calculation performed, and the simulation continues.
   ** Warning ** GetDaylightingControls: Fraction of zone or space controlled by the Daylighting reference points is < 1.0.
   **   ~~~   ** ..discovered in Daylighting:Controls="BREAK_ROOM_3_DAYLIGHT", only 0.900 of the zone or space is controlled.
   ** Warning ** No Glare Calculation Daylighting Reference Point Name provided for object named: OFFICE_OPEN_3_DAYLIGHT
   **   ~~~   ** No glare calculation performed, and the simulation continues.
   ** Warning ** GetDaylightingControls: Fraction of zone or space controlled by the Daylighting reference points is < 1.0.
   **   ~~~   ** ..discovered in Daylighting:Controls="OFFICE_OPEN_3_DAYLIGHT", only 0.900 of the zone or space is controlled.
   ** Warning ** No Glare Calculation Daylighting Reference Point Name provided for object named: OFFICE_PRIVATE_3_DAYLIGHT
   **   ~~~   ** No glare calculation performed, and the simulation continues.
   ** Warning ** GetDaylightingControls: Fraction of zone or space controlled by the Daylighting reference points is < 1.0.
   **   ~~~   ** ..discovered in Daylighting:Controls="OFFICE_PRIVATE_3_DAYLIGHT", only 0.900 of the zone or space is controlled.
   ** Warning ** No Glare Calculation Daylighting Reference Point Name provided for object named: LOBBY_4_DAYLIGHT
   **   ~~~   ** No glare calculation performed, and the simulation continues.
   ** Warning ** GetDaylightingControls: Fraction of zone or space controlled by the Daylighting reference points is < 1.0.
   **   ~~~   ** ..discovered in Daylighting:Controls="LOBBY_4_DAYLIGHT", only 0.900 of the zone or space is controlled.
   ** Warning ** No Glare Calculation Daylighting Reference Point Name provided for object named: CONFERENCE_4_DAYLIGHT
   **   ~~~   ** No glare calculation performed, and the simulation continues.
   ** Warning ** GetDaylightingControls: Fraction of zone or space controlled by the Daylighting reference points is < 1.0.
   **   ~~~   ** ..discovered in Daylighting:Controls="CONFERENCE_4_DAYLIGHT", only 0.900 of the zone or space is controlled.
   ** Warning ** No Glare Calculation Daylighting Reference Point Name provided for object named: BREAK_ROOM_4_DAYLIGHT
   **   ~~~   ** No glare calculation performed, and the simulation continues.
   ** Warning ** GetDaylightingControls: Fraction of zone or space controlled by the Daylighting reference points is < 1.0.
   **   ~~~   ** ..discovered in Daylighting:Controls="BREAK_ROOM_4_DAYLIGHT", only 0.900 of the zone or space is controlled.
   ** Warning ** No Glare Calculation Daylighting Reference Point Name provided for object named: OFFICE_OPEN_4_DAYLIGHT
   **   ~~~   ** No glare calculation performed, and the simulation continues.
   ** Warning ** GetDaylightingControls: Fraction of zone or space controlled by the Daylighting reference points is < 1.0.
   **   ~~~   ** ..discovered in Daylighting:Controls="OFFICE_OPEN_4_DAYLIGHT", only 0.900 of the zone or space is controlled.
   ** Warning ** No Glare Calculation Daylighting Reference Point Name provided for object named: OFFICE_PRIVATE_4_DAYLIGHT
   **   ~~~   ** No glare calculation performed, and the simulation continues.
   ** Warning ** GetDaylightingControls: Fraction of zone or space controlled by the Daylighting reference points is < 1.0.
   **   ~~~   ** ..discovered in Daylighting:Controls="OFFICE_PRIVATE_4_DAYLIGHT", only 0.900 of the zone or space is controlled.
   ** Warning ** No Glare Calculation Daylighting Reference Point Name provided for object named: LOBBY_5_DAYLIGHT
   **   ~~~   ** No glare calculation performed, and the simulation continues.
   ** Warning ** GetDaylightingControls: Fraction of zone or space controlled by the Daylighting reference points is < 1.0.
   **   ~~~   ** ..discovered in Daylighting:Controls="LOBBY_5_DAYLIGHT", only 0.900 of the zone or space is controlled.
   ** Warning ** No Glare Calculation Daylighting Reference Point Name provided for object named: CONFERENCE_5_DAYLIGHT
   **   ~~~   ** No glare calculation performed, and the simulation continues.
   ** Warning ** GetDaylightingControls: Fraction of zone or space controlled by the Daylighting reference points is < 1.0.
   **   ~~~   ** ..discovered in Daylighting:Controls="CONFERENCE_5_DAYLIGHT", only 0.900 of the zone or space is controlled.
   ** Warning ** No Glare Calculation Daylighting Reference Point Name provided for object named: BREAK_ROOM_5_DAYLIGHT
   **   ~~~   ** No glare calculation performed, and the simulation continues.
   ** Warning ** GetDaylightingControls: Fraction of zone or space controlled by the Daylighting reference points is < 1.0.
   **   ~~~   ** ..discovered in Daylighting:Controls="BREAK_ROOM_5_DAYLIGHT", only 0.900 of the zone or space is controlled.
   ** Warning ** No Glare Calculation Daylighting Reference Point Name provided for object named: OFFICE_OPEN_5_DAYLIGHT
   **   ~~~   ** No glare calculation performed, and the simulation continues.
   ** Warning ** GetDaylightingControls: Fraction of zone or space controlled by the Daylighting reference points is < 1.0.
   **   ~~~   ** ..discovered in Daylighting:Controls="OFFICE_OPEN_5_DAYLIGHT", only 0.900 of the zone or space is controlled.
   ** Warning ** No Glare Calculation Daylighting Reference Point Name provided for object named: OFFICE_PRIVATE_5_DAYLIGHT
   **   ~~~   ** No glare calculation performed, and the simulation continues.
   ** Warning ** GetDaylightingControls: Fraction of zone or space controlled by the Daylighting reference points is < 1.0.
   **   ~~~   ** ..discovered in Daylighting:Controls="OFFICE_PRIVATE_5_DAYLIGHT", only 0.900 of the zone or space is controlled.
   ** Warning ** No Glare Calculation Daylighting Reference Point Name provided for object named: LOBBY_6_DAYLIGHT
   **   ~~~   ** No glare calculation performed, and the simulation continues.
   ** Warning ** GetDaylightingControls: Fraction of zone or space controlled by the Daylighting reference points is < 1.0.
   **   ~~~   ** ..discovered in Daylighting:Controls="LOBBY_6_DAYLIGHT", only 0.900 of the zone or space is controlled.
   ** Warning ** No Glare Calculation Daylighting Reference Point Name provided for object named: CONFERENCE_6_DAYLIGHT
   **   ~~~   ** No glare calculation performed, and the simulation continues.
   ** Warning ** GetDaylightingControls: Fraction of zone or space controlled by the Daylighting reference points is < 1.0.
   **   ~~~   ** ..discovered in Daylighting:Controls="CONFERENCE_6_DAYLIGHT", only 0.900 of the zone or space is controlled.
   ** Warning ** No Glare Calculation Daylighting Reference Point Name provided for object named: BREAK_ROOM_6_DAYLIGHT
   **   ~~~   ** No glare calculation performed, and the simulation continues.
   ** Warning ** GetDaylightingControls: Fraction of zone or space controlled by the Daylighting reference points is < 1.0.
   **   ~~~   ** ..discovered in Daylighting:Controls="BREAK_ROOM_6_DAYLIGHT", only 0.900 of the zone or space is controlled.
   ** Warning ** No Glare Calculation Daylighting Reference Point Name provided for object named: OFFICE_OPEN_6_DAYLIGHT
   **   ~~~   ** No glare calculation performed, and the simulation continues.
   ** Warning ** GetDaylightingControls: Fraction of zone or space controlled by the Daylighting reference points is < 1.0.
   **   ~~~   ** ..discovered in Daylighting:Controls="OFFICE_OPEN_6_DAYLIGHT", only 0.900 of the zone or space is controlled.
   ** Warning ** No Glare Calculation Daylighting Reference Point Name provided for object named: OFFICE_PRIVATE_6_DAYLIGHT
   **   ~~~   ** No glare calculation performed, and the simulation continues.
   ** Warning ** GetDaylightingControls: Fraction of zone or space controlled by the Daylighting reference points is < 1.0.
   **   ~~~   ** ..discovered in Daylighting:Controls="OFFICE_PRIVATE_6_DAYLIGHT", only 0.900 of the zone or space is controlled.
   ** Warning ** No Glare Calculation Daylighting Reference Point Name provided for object named: CONFERENCE_7_DAYLIGHT
   **   ~~~   ** No glare calculation performed, and the simulation continues.
   ** Warning ** GetDaylightingControls: Fraction of zone or space controlled by the Daylighting reference points is < 1.0.
   **   ~~~   ** ..discovered in Daylighting:Controls="CONFERENCE_7_DAYLIGHT", only 0.900 of the zone or space is controlled.
   ** Warning ** No Glare Calculation Daylighting Reference Point Name provided for object named: BREAK_ROOM_7_DAYLIGHT
   **   ~~~   ** No glare calculation performed, and the simulation continues.
   ** Warning ** GetDaylightingControls: Fraction of zone or space controlled by the Daylighting reference points is < 1.0.
   **   ~~~   ** ..discovered in Daylighting:Controls="BREAK_ROOM_7_DAYLIGHT", only 0.900 of the zone or space is controlled.
   ** Warning ** No Glare Calculation Daylighting Reference Point Name provided for object named: OFFICE_OPEN_7_DAYLIGHT
   **   ~~~   ** No glare calculation performed, and the simulation continues.
   ** Warning ** GetDaylightingControls: Fraction of zone or space controlled by the Daylighting reference points is < 1.0.
   **   ~~~   ** ..discovered in Daylighting:Controls="OFFICE_OPEN_7_DAYLIGHT", only 0.900 of the zone or space is controlled.
   ** Warning ** No Glare Calculation Daylighting Reference Point Name provided for object named: OFFICE_PRIVATE_7_DAYLIGHT
   **   ~~~   ** No glare calculation performed, and the simulation continues.
   ** Warning ** GetDaylightingControls: Fraction of zone or space controlled by the Daylighting reference points is < 1.0.
   **   ~~~   ** ..discovered in Daylighting:Controls="OFFICE_PRIVATE_7_DAYLIGHT", only 0.900 of the zone or space is controlled.
   ** Warning ** No Glare Calculation Daylighting Reference Point Name provided for object named: LOBBY_8_DAYLIGHT
   **   ~~~   ** No glare calculation performed, and the simulation continues.
   ** Warning ** GetDaylightingControls: Fraction of zone or space controlled by the Daylighting reference points is < 1.0.
   **   ~~~   ** ..discovered in Daylighting:Controls="LOBBY_8_DAYLIGHT", only 0.900 of the zone or space is controlled.
   ** Warning ** No Glare Calculation Daylighting Reference Point Name provided for object named: CONFERENCE_8_DAYLIGHT
   **   ~~~   ** No glare calculation performed, and the simulation continues.
   ** Warning ** GetDaylightingControls: Fraction of zone or space controlled by the Daylighting reference points is < 1.0.
   **   ~~~   ** ..discovered in Daylighting:Controls="CONFERENCE_8_DAYLIGHT", only 0.900 of the zone or space is controlled.
   ** Warning ** No Glare Calculation Daylighting Reference Point Name provided for object named: BREAK_ROOM_8_DAYLIGHT
   **   ~~~   ** No glare calculation performed, and the simulation continues.
   ** Warning ** GetDaylightingControls: Fraction of zone or space controlled by the Daylighting reference points is < 1.0.
   **   ~~~   ** ..discovered in Daylighting:Controls="BREAK_ROOM_8_DAYLIGHT", only 0.900 of the zone or space is controlled.
   ** Warning ** No Glare Calculation Daylighting Reference Point Name provided for object named: OFFICE_OPEN_8_DAYLIGHT
   **   ~~~   ** No glare calculation performed, and the simulation continues.
   ** Warning ** GetDaylightingControls: Fraction of zone or space controlled by the Daylighting reference points is < 1.0.
   **   ~~~   ** ..discovered in Daylighting:Controls="OFFICE_OPEN_8_DAYLIGHT", only 0.900 of the zone or space is controlled.
   ** Warning ** No Glare Calculation Daylighting Reference Point Name provided for object named: OFFICE_PRIVATE_8_DAYLIGHT
   **   ~~~   ** No glare calculation performed, and the simulation continues.
   ** Warning ** GetDaylightingControls: Fraction of zone or space controlled by the Daylighting reference points is < 1.0.
   **   ~~~   ** ..discovered in Daylighting:Controls="OFFICE_PRIVATE_8_DAYLIGHT", only 0.900 of the zone or space is controlled.
   ** Warning ** No Glare Calculation Daylighting Reference Point Name provided for object named: LOBBY_9_DAYLIGHT
   **   ~~~   ** No glare calculation performed, and the simulation continues.
   ** Warning ** GetDaylightingControls: Fraction of zone or space controlled by the Daylighting reference points is < 1.0.
   **   ~~~   ** ..discovered in Daylighting:Controls="LOBBY_9_DAYLIGHT", only 0.900 of the zone or space is controlled.
   ** Warning ** No Glare Calculation Daylighting Reference Point Name provided for object named: CONFERENCE_9_DAYLIGHT
   **   ~~~   ** No glare calculation performed, and the simulation continues.
   ** Warning ** GetDaylightingControls: Fraction of zone or space controlled by the Daylighting reference points is < 1.0.
   **   ~~~   ** ..discovered in Daylighting:Controls="CONFERENCE_9_DAYLIGHT", only 0.900 of the zone or space is controlled.
   ** Warning ** No Glare Calculation Daylighting Reference Point Name provided for object named: BREAK_ROOM_9_DAYLIGHT
   **   ~~~   ** No glare calculation performed, and the simulation continues.
   ** Warning ** GetDaylightingControls: Fraction of zone or space controlled by the Daylighting reference points is < 1.0.
   **   ~~~   ** ..discovered in Daylighting:Controls="BREAK_ROOM_9_DAYLIGHT", only 0.900 of the zone or space is controlled.
   ** Warning ** No Glare Calculation Daylighting Reference Point Name provided for object named: OFFICE_OPEN_9_DAYLIGHT
   **   ~~~   ** No glare calculation performed, and the simulation continues.
   ** Warning ** GetDaylightingControls: Fraction of zone or space controlled by the Daylighting reference points is < 1.0.
   **   ~~~   ** ..discovered in Daylighting:Controls="OFFICE_OPEN_9_DAYLIGHT", only 0.900 of the zone or space is controlled.
   ** Warning ** No Glare Calculation Daylighting Reference Point Name provided for object named: OFFICE_PRIVATE_9_DAYLIGHT
   **   ~~~   ** No glare calculation performed, and the simulation continues.
   ** Warning ** GetDaylightingControls: Fraction of zone or space controlled by the Daylighting reference points is < 1.0.
   **   ~~~   ** ..discovered in Daylighting:Controls="OFFICE_PRIVATE_9_DAYLIGHT", only 0.900 of the zone or space is controlled.
   ** Warning ** No Glare Calculation Daylighting Reference Point Name provided for object named: LOBBY_10_DAYLIGHT
   **   ~~~   ** No glare calculation performed, and the simulation continues.
   ** Warning ** GetDaylightingControls: Fraction of zone or space controlled by the Daylighting reference points is < 1.0.
   **   ~~~   ** ..discovered in Daylighting:Controls="LOBBY_10_DAYLIGHT", only 0.900 of the zone or space is controlled.
   ** Warning ** No Glare Calculation Daylighting Reference Point Name provided for object named: CONFERENCE_10_DAYLIGHT
   **   ~~~   ** No glare calculation performed, and the simulation continues.
   ** Warning ** GetDaylightingControls: Fraction of zone or space controlled by the Daylighting reference points is < 1.0.
   **   ~~~   ** ..discovered in Daylighting:Controls="CONFERENCE_10_DAYLIGHT", only 0.900 of the zone or space is controlled.
   ** Warning ** No Glare Calculation Daylighting Reference Point Name provided for object named: BREAK_ROOM_10_DAYLIGHT
   **   ~~~   ** No glare calculation performed, and the simulation continues.
   ** Warning ** GetDaylightingControls: Fraction of zone or space controlled by the Daylighting reference points is < 1.0.
   **   ~~~   ** ..discovered in Daylighting:Controls="BREAK_ROOM_10_DAYLIGHT", only 0.900 of the zone or space is controlled.
   ** Warning ** No Glare Calculation Daylighting Reference Point Name provided for object named: OFFICE_OPEN_10_DAYLIGHT
   **   ~~~   ** No glare calculation performed, and the simulation continues.
   ** Warning ** GetDaylightingControls: Fraction of zone or space controlled by the Daylighting reference points is < 1.0.
   **   ~~~   ** ..discovered in Daylighting:Controls="OFFICE_OPEN_10_DAYLIGHT", only 0.900 of the zone or space is controlled.
   ** Warning ** No Glare Calculation Daylighting Reference Point Name provided for object named: OFFICE_PRIVATE_10_DAYLIGHT
   **   ~~~   ** No glare calculation performed, and the simulation continues.
   ** Warning ** GetDaylightingControls: Fraction of zone or space controlled by the Daylighting reference points is < 1.0.
   **   ~~~   ** ..discovered in Daylighting:Controls="OFFICE_PRIVATE_10_DAYLIGHT", only 0.900 of the zone or space is controlled.
   ** Warning ** No Glare Calculation Daylighting Reference Point Name provided for object named: LOBBY_11_DAYLIGHT
   **   ~~~   ** No glare calculation performed, and the simulation continues.
   ** Warning ** GetDaylightingControls: Fraction of zone or space controlled by the Daylighting reference points is < 1.0.
   **   ~~~   ** ..discovered in Daylighting:Controls="LOBBY_11_DAYLIGHT", only 0.900 of the zone or space is controlled.
   ** Warning ** No Glare Calculation Daylighting Reference Point Name provided for object named: CONFERENCE_11_DAYLIGHT
   **   ~~~   ** No glare calculation performed, and the simulation continues.
   ** Warning ** GetDaylightingControls: Fraction of zone or space controlled by the Daylighting reference points is < 1.0.
   **   ~~~   ** ..discovered in Daylighting:Controls="CONFERENCE_11_DAYLIGHT", only 0.900 of the zone or space is controlled.
   ** Warning ** No Glare Calculation Daylighting Reference Point Name provided for object named: BREAK_ROOM_11_DAYLIGHT
   **   ~~~   ** No glare calculation performed, and the simulation continues.
   ** Warning ** GetDaylightingControls: Fraction of zone or space controlled by the Daylighting reference points is < 1.0.
   **   ~~~   ** ..discovered in Daylighting:Controls="BREAK_ROOM_11_DAYLIGHT", only 0.900 of the zone or space is controlled.
   ** Warning ** No Glare Calculation Daylighting Reference Point Name provided for object named: OFFICE_OPEN_11_DAYLIGHT
   **   ~~~   ** No glare calculation performed, and the simulation continues.
   ** Warning ** GetDaylightingControls: Fraction of zone or space controlled by the Daylighting reference points is < 1.0.
   **   ~~~   ** ..discovered in Daylighting:Controls="OFFICE_OPEN_11_DAYLIGHT", only 0.900 of the zone or space is controlled.
   ** Warning ** No Glare Calculation Daylighting Reference Point Name provided for object named: OFFICE_PRIVATE_11_DAYLIGHT
   **   ~~~   ** No glare calculation performed, and the simulation continues.
   ** Warning ** GetDaylightingControls: Fraction of zone or space controlled by the Daylighting reference points is < 1.0.
   **   ~~~   ** ..discovered in Daylighting:Controls="OFFICE_PRIVATE_11_DAYLIGHT", only 0.900 of the zone or space is controlled.
   ** Warning ** No Glare Calculation Daylighting Reference Point Name provided for object named: LOBBY_12_DAYLIGHT
   **   ~~~   ** No glare calculation performed, and the simulation continues.
   ** Warning ** GetDaylightingControls: Fraction of zone or space controlled by the Daylighting reference points is < 1.0.
   **   ~~~   ** ..discovered in Daylighting:Controls="LOBBY_12_DAYLIGHT", only 0.900 of the zone or space is controlled.
   ** Warning ** No Glare Calculation Daylighting Reference Point Name provided for object named: CONFERENCE_12_DAYLIGHT
   **   ~~~   ** No glare calculation performed, and the simulation continues.
   ** Warning ** GetDaylightingControls: Fraction of zone or space controlled by the Daylighting reference points is < 1.0.
   **   ~~~   ** ..discovered in Daylighting:Controls="CONFERENCE_12_DAYLIGHT", only 0.900 of the zone or space is controlled.
   ** Warning ** No Glare Calculation Daylighting Reference Point Name provided for object named: BREAK_ROOM_12_DAYLIGHT
   **   ~~~   ** No glare calculation performed, and the simulation continues.
   ** Warning ** GetDaylightingControls: Fraction of zone or space controlled by the Daylighting reference points is < 1.0.
   **   ~~~   ** ..discovered in Daylighting:Controls="BREAK_ROOM_12_DAYLIGHT", only 0.900 of the zone or space is controlled.
   ** Warning ** No Glare Calculation Daylighting Reference Point Name provided for object named: OFFICE_OPEN_12_DAYLIGHT
   **   ~~~   ** No glare calculation performed, and the simulation continues.
   ** Warning ** GetDaylightingControls: Fraction of zone or space controlled by the Daylighting reference points is < 1.0.
   **   ~~~   ** ..discovered in Daylighting:Controls="OFFICE_OPEN_12_DAYLIGHT", only 0.900 of the zone or space is controlled.
   ** Warning ** No Glare Calculation Daylighting Reference Point Name provided for object named: OFFICE_PRIVATE_12_DAYLIGHT
   **   ~~~   ** No glare calculation performed, and the simulation continues.
   ** Warning ** GetDaylightingControls: Fraction of zone or space controlled by the Daylighting reference points is < 1.0.
   **   ~~~   ** ..discovered in Daylighting:Controls="OFFICE_PRIVATE_12_DAYLIGHT", only 0.900 of the zone or space is controlled.
   ** Warning ** No Glare Calculation Daylighting Reference Point Name provided for object named: LOBBY_13_DAYLIGHT
   **   ~~~   ** No glare calculation performed, and the simulation continues.
   ** Warning ** GetDaylightingControls: Fraction of zone or space controlled by the Daylighting reference points is < 1.0.
   **   ~~~   ** ..discovered in Daylighting:Controls="LOBBY_13_DAYLIGHT", only 0.900 of the zone or space is controlled.
   ** Warning ** No Glare Calculation Daylighting Reference Point Name provided for object named: CONFERENCE_13_DAYLIGHT
   **   ~~~   ** No glare calculation performed, and the simulation continues.
   ** Warning ** GetDaylightingControls: Fraction of zone or space controlled by the Daylighting reference points is < 1.0.
   **   ~~~   ** ..discovered in Daylighting:Controls="CONFERENCE_13_DAYLIGHT", only 0.900 of the zone or space is controlled.
   ** Warning ** No Glare Calculation Daylighting Reference Point Name provided for object named: BREAK_ROOM_13_DAYLIGHT
   **   ~~~   ** No glare calculation performed, and the simulation continues.
   ** Warning ** GetDaylightingControls: Fraction of zone or space controlled by the Daylighting reference points is < 1.0.
   **   ~~~   ** ..discovered in Daylighting:Controls="BREAK_ROOM_13_DAYLIGHT", only 0.900 of the zone or space is controlled.
   ** Warning ** No Glare Calculation Daylighting Reference Point Name provided for object named: OFFICE_OPEN_13_DAYLIGHT
   **   ~~~   ** No glare calculation performed, and the simulation continues.
   ** Warning ** GetDaylightingControls: Fraction of zone or space controlled by the Daylighting reference points is < 1.0.
   **   ~~~   ** ..discovered in Daylighting:Controls="OFFICE_OPEN_13_DAYLIGHT", only 0.900 of the zone or space is controlled.
   ** Warning ** No Glare Calculation Daylighting Reference Point Name provided for object named: OFFICE_PRIVATE_13_DAYLIGHT
   **   ~~~   ** No glare calculation performed, and the simulation continues.
   ** Warning ** GetDaylightingControls: Fraction of zone or space controlled by the Daylighting reference points is < 1.0.
   **   ~~~   ** ..discovered in Daylighting:Controls="OFFICE_PRIVATE_13_DAYLIGHT", only 0.900 of the zone or space is controlled.
   ** Warning ** No Glare Calculation Daylighting Reference Point Name provided for object named: LOBBY_14_DAYLIGHT
   **   ~~~   ** No glare calculation performed, and the simulation continues.
   ** Warning ** GetDaylightingControls: Fraction of zone or space controlled by the Daylighting reference points is < 1.0.
   **   ~~~   ** ..discovered in Daylighting:Controls="LOBBY_14_DAYLIGHT", only 0.900 of the zone or space is controlled.
   ** Warning ** No Glare Calculation Daylighting Reference Point Name provided for object named: CONFERENCE_14_DAYLIGHT
   **   ~~~   ** No glare calculation performed, and the simulation continues.
   ** Warning ** GetDaylightingControls: Fraction of zone or space controlled by the Daylighting reference points is < 1.0.
   **   ~~~   ** ..discovered in Daylighting:Controls="CONFERENCE_14_DAYLIGHT", only 0.900 of the zone or space is controlled.
   ** Warning ** No Glare Calculation Daylighting Reference Point Name provided for object named: BREAK_ROOM_14_DAYLIGHT
   **   ~~~   ** No glare calculation performed, and the simulation continues.
   ** Warning ** GetDaylightingControls: Fraction of zone or space controlled by the Daylighting reference points is < 1.0.
   **   ~~~   ** ..discovered in Daylighting:Controls="BREAK_ROOM_14_DAYLIGHT", only 0.900 of the zone or space is controlled.
   ** Warning ** No Glare Calculation Daylighting Reference Point Name provided for object named: OFFICE_OPEN_14_DAYLIGHT
   **   ~~~   ** No glare calculation performed, and the simulation continues.
   ** Warning ** GetDaylightingControls: Fraction of zone or space controlled by the Daylighting reference points is < 1.0.
   **   ~~~   ** ..discovered in Daylighting:Controls="OFFICE_OPEN_14_DAYLIGHT", only 0.900 of the zone or space is controlled.
   ** Warning ** No Glare Calculation Daylighting Reference Point Name provided for object named: OFFICE_PRIVATE_14_DAYLIGHT
   **   ~~~   ** No glare calculation performed, and the simulation continues.
   ** Warning ** GetDaylightingControls: Fraction of zone or space controlled by the Daylighting reference points is < 1.0.
   **   ~~~   ** ..discovered in Daylighting:Controls="OFFICE_PRIVATE_14_DAYLIGHT", only 0.900 of the zone or space is controlled.
   ** Warning ** No Glare Calculation Daylighting Reference Point Name provided for object named: LOBBY_15_DAYLIGHT
   **   ~~~   ** No glare calculation performed, and the simulation continues.
   ** Warning ** GetDaylightingControls: Fraction of zone or space controlled by the Daylighting reference points is < 1.0.
   **   ~~~   ** ..discovered in Daylighting:Controls="LOBBY_15_DAYLIGHT", only 0.900 of the zone or space is controlled.
   ** Warning ** No Glare Calculation Daylighting Reference Point Name provided for object named: CONFERENCE_15_DAYLIGHT
   **   ~~~   ** No glare calculation performed, and the simulation continues.
   ** Warning ** GetDaylightingControls: Fraction of zone or space controlled by the Daylighting reference points is < 1.0.
   **   ~~~   ** ..discovered in Daylighting:Controls="CONFERENCE_15_DAYLIGHT", only 0.900 of the zone or space is controlled.
   ** Warning ** No Glare Calculation Daylighting Reference Point Name provided for object named: BREAK_ROOM_15_DAYLIGHT
   **   ~~~   ** No glare calculation performed, and the simulation continues.
   ** Warning ** GetDaylightingControls: Fraction of zone or space controlled by the Daylighting reference points is < 1.0.
   **   ~~~   ** ..discovered in Daylighting:Controls="BREAK_ROOM_15_DAYLIGHT", only 0.900 of the zone or space is controlled.
   ** Warning ** No Glare Calculation Daylighting Reference Point Name provided for object named: OFFICE_PRIVATE_15_DAYLIGHT
   **   ~~~   ** No glare calculation performed, and the simulation continues.
   ** Warning ** GetDaylightingControls: Fraction of zone or space controlled by the Daylighting reference points is < 1.0.
   **   ~~~   ** ..discovered in Daylighting:Controls="OFFICE_PRIVATE_15_DAYLIGHT", only 0.900 of the zone or space is controlled.
   ** Warning ** No Glare Calculation Daylighting Reference Point Name provided for object named: LOBBY_16_DAYLIGHT
   **   ~~~   ** No glare calculation performed, and the simulation continues.
   ** Warning ** GetDaylightingControls: Fraction of zone or space controlled by the Daylighting reference points is < 1.0.
   **   ~~~   ** ..discovered in Daylighting:Controls="LOBBY_16_DAYLIGHT", only 0.900 of the zone or space is controlled.
   ** Warning ** No Glare Calculation Daylighting Reference Point Name provided for object named: CONFERENCE_16_DAYLIGHT
   **   ~~~   ** No glare calculation performed, and the simulation continues.
   ** Warning ** GetDaylightingControls: Fraction of zone or space controlled by the Daylighting reference points is < 1.0.
   **   ~~~   ** ..discovered in Daylighting:Controls="CONFERENCE_16_DAYLIGHT", only 0.900 of the zone or space is controlled.
   ** Warning ** No Glare Calculation Daylighting Reference Point Name provided for object named: BREAK_ROOM_16_DAYLIGHT
   **   ~~~   ** No glare calculation performed, and the simulation continues.
   ** Warning ** GetDaylightingControls: Fraction of zone or space controlled by the Daylighting reference points is < 1.0.
   **   ~~~   ** ..discovered in Daylighting:Controls="BREAK_ROOM_16_DAYLIGHT", only 0.900 of the zone or space is controlled.
   ** Warning ** No Glare Calculation Daylighting Reference Point Name provided for object named: OFFICE_OPEN_16_DAYLIGHT
   **   ~~~   ** No glare calculation performed, and the simulation continues.
   ** Warning ** GetDaylightingControls: Fraction of zone or space controlled by the Daylighting reference points is < 1.0.
   **   ~~~   ** ..discovered in Daylighting:Controls="OFFICE_OPEN_16_DAYLIGHT", only 0.900 of the zone or space is controlled.
   ** Warning ** No Glare Calculation Daylighting Reference Point Name provided for object named: OFFICE_PRIVATE_16_DAYLIGHT
   **   ~~~   ** No glare calculation performed, and the simulation continues.
   ** Warning ** GetDaylightingControls: Fraction of zone or space controlled by the Daylighting reference points is < 1.0.
   **   ~~~   ** ..discovered in Daylighting:Controls="OFFICE_PRIVATE_16_DAYLIGHT", only 0.900 of the zone or space is controlled.
   ** Warning ** No Glare Calculation Daylighting Reference Point Name provided for object named: LOBBY_17_DAYLIGHT
   **   ~~~   ** No glare calculation performed, and the simulation continues.
   ** Warning ** GetDaylightingControls: Fraction of zone or space controlled by the Daylighting reference points is < 1.0.
   **   ~~~   ** ..discovered in Daylighting:Controls="LOBBY_17_DAYLIGHT", only 0.900 of the zone or space is controlled.
   ** Warning ** No Glare Calculation Daylighting Reference Point Name provided for object named: BREAK_ROOM_17_DAYLIGHT
   **   ~~~   ** No glare calculation performed, and the simulation continues.
   ** Warning ** GetDaylightingControls: Fraction of zone or space controlled by the Daylighting reference points is < 1.0.
   **   ~~~   ** ..discovered in Daylighting:Controls="BREAK_ROOM_17_DAYLIGHT", only 0.900 of the zone or space is controlled.
   ** Warning ** No Glare Calculation Daylighting Reference Point Name provided for object named: OFFICE_OPEN_17_DAYLIGHT
   **   ~~~   ** No glare calculation performed, and the simulation continues.
   ** Warning ** GetDaylightingControls: Fraction of zone or space controlled by the Daylighting reference points is < 1.0.
   **   ~~~   ** ..discovered in Daylighting:Controls="OFFICE_OPEN_17_DAYLIGHT", only 0.900 of the zone or space is controlled.
   ** Warning ** No Glare Calculation Daylighting Reference Point Name provided for object named: OFFICE_PRIVATE_17_DAYLIGHT
   **   ~~~   ** No glare calculation performed, and the simulation continues.
   ** Warning ** GetDaylightingControls: Fraction of zone or space controlled by the Daylighting reference points is < 1.0.
   **   ~~~   ** ..discovered in Daylighting:Controls="OFFICE_PRIVATE_17_DAYLIGHT", only 0.900 of the zone or space is controlled.
   ** Warning ** No Glare Calculation Daylighting Reference Point Name provided for object named: CONFERENCE_18_DAYLIGHT
   **   ~~~   ** No glare calculation performed, and the simulation continues.
   ** Warning ** GetDaylightingControls: Fraction of zone or space controlled by the Daylighting reference points is < 1.0.
   **   ~~~   ** ..discovered in Daylighting:Controls="CONFERENCE_18_DAYLIGHT", only 0.900 of the zone or space is controlled.
   ** Warning ** No Glare Calculation Daylighting Reference Point Name provided for object named: BREAK_ROOM_18_DAYLIGHT
   **   ~~~   ** No glare calculation performed, and the simulation continues.
   ** Warning ** GetDaylightingControls: Fraction of zone or space controlled by the Daylighting reference points is < 1.0.
   **   ~~~   ** ..discovered in Daylighting:Controls="BREAK_ROOM_18_DAYLIGHT", only 0.900 of the zone or space is controlled.
   ** Warning ** No Glare Calculation Daylighting Reference Point Name provided for object named: OFFICE_OPEN_18_DAYLIGHT
   **   ~~~   ** No glare calculation performed, and the simulation continues.
   ** Warning ** GetDaylightingControls: Fraction of zone or space controlled by the Daylighting reference points is < 1.0.
   **   ~~~   ** ..discovered in Daylighting:Controls="OFFICE_OPEN_18_DAYLIGHT", only 0.900 of the zone or space is controlled.
   ** Warning ** No Glare Calculation Daylighting Reference Point Name provided for object named: OFFICE_PRIVATE_18_DAYLIGHT
   **   ~~~   ** No glare calculation performed, and the simulation continues.
   ** Warning ** GetDaylightingControls: Fraction of zone or space controlled by the Daylighting reference points is < 1.0.
   **   ~~~   ** ..discovered in Daylighting:Controls="OFFICE_PRIVATE_18_DAYLIGHT", only 0.900 of the zone or space is controlled.
   ** Warning ** No Glare Calculation Daylighting Reference Point Name provided for object named: LOBBY_19_DAYLIGHT
   **   ~~~   ** No glare calculation performed, and the simulation continues.
   ** Warning ** GetDaylightingControls: Fraction of zone or space controlled by the Daylighting reference points is < 1.0.
   **   ~~~   ** ..discovered in Daylighting:Controls="LOBBY_19_DAYLIGHT", only 0.900 of the zone or space is controlled.
   ** Warning ** No Glare Calculation Daylighting Reference Point Name provided for object named: CONFERENCE_19_DAYLIGHT
   **   ~~~   ** No glare calculation performed, and the simulation continues.
   ** Warning ** GetDaylightingControls: Fraction of zone or space controlled by the Daylighting reference points is < 1.0.
   **   ~~~   ** ..discovered in Daylighting:Controls="CONFERENCE_19_DAYLIGHT", only 0.900 of the zone or space is controlled.
   ** Warning ** No Glare Calculation Daylighting Reference Point Name provided for object named: BREAK_ROOM_19_DAYLIGHT
   **   ~~~   ** No glare calculation performed, and the simulation continues.
   ** Warning ** GetDaylightingControls: Fraction of zone or space controlled by the Daylighting reference points is < 1.0.
   **   ~~~   ** ..discovered in Daylighting:Controls="BREAK_ROOM_19_DAYLIGHT", only 0.900 of the zone or space is controlled.
   ** Warning ** No Glare Calculation Daylighting Reference Point Name provided for object named: OFFICE_OPEN_19_DAYLIGHT
   **   ~~~   ** No glare calculation performed, and the simulation continues.
   ** Warning ** GetDaylightingControls: Fraction of zone or space controlled by the Daylighting reference points is < 1.0.
   **   ~~~   ** ..discovered in Daylighting:Controls="OFFICE_OPEN_19_DAYLIGHT", only 0.900 of the zone or space is controlled.
   ** Warning ** No Glare Calculation Daylighting Reference Point Name provided for object named: OFFICE_PRIVATE_19_DAYLIGHT
   **   ~~~   ** No glare calculation performed, and the simulation continues.
   ** Warning ** GetDaylightingControls: Fraction of zone or space controlled by the Daylighting reference points is < 1.0.
   **   ~~~   ** ..discovered in Daylighting:Controls="OFFICE_PRIVATE_19_DAYLIGHT", only 0.900 of the zone or space is controlled.
   ** Warning ** No Glare Calculation Daylighting Reference Point Name provided for object named: LOBBY_20_DAYLIGHT
   **   ~~~   ** No glare calculation performed, and the simulation continues.
   ** Warning ** GetDaylightingControls: Fraction of zone or space controlled by the Daylighting reference points is < 1.0.
   **   ~~~   ** ..discovered in Daylighting:Controls="LOBBY_20_DAYLIGHT", only 0.900 of the zone or space is controlled.
   ** Warning ** No Glare Calculation Daylighting Reference Point Name provided for object named: CONFERENCE_20_DAYLIGHT
   **   ~~~   ** No glare calculation performed, and the simulation continues.
   ** Warning ** GetDaylightingControls: Fraction of zone or space controlled by the Daylighting reference points is < 1.0.
   **   ~~~   ** ..discovered in Daylighting:Controls="CONFERENCE_20_DAYLIGHT", only 0.900 of the zone or space is controlled.
   ** Warning ** No Glare Calculation Daylighting Reference Point Name provided for object named: BREAK_ROOM_20_DAYLIGHT
   **   ~~~   ** No glare calculation performed, and the simulation continues.
   ** Warning ** GetDaylightingControls: Fraction of zone or space controlled by the Daylighting reference points is < 1.0.
   **   ~~~   ** ..discovered in Daylighting:Controls="BREAK_ROOM_20_DAYLIGHT", only 0.900 of the zone or space is controlled.
   ** Warning ** No Glare Calculation Daylighting Reference Point Name provided for object named: OFFICE_OPEN_20_DAYLIGHT
   **   ~~~   ** No glare calculation performed, and the simulation continues.
   ** Warning ** GetDaylightingControls: Fraction of zone or space controlled by the Daylighting reference points is < 1.0.
   **   ~~~   ** ..discovered in Daylighting:Controls="OFFICE_OPEN_20_DAYLIGHT", only 0.900 of the zone or space is controlled.
   ** Warning ** No Glare Calculation Daylighting Reference Point Name provided for object named: OFFICE_PRIVATE_20_DAYLIGHT
   **   ~~~   ** No glare calculation performed, and the simulation continues.
   ** Warning ** GetDaylightingControls: Fraction of zone or space controlled by the Daylighting reference points is < 1.0.
   **   ~~~   ** ..discovered in Daylighting:Controls="OFFICE_PRIVATE_20_DAYLIGHT", only 0.900 of the zone or space is controlled.
   ** Warning ** No Glare Calculation Daylighting Reference Point Name provided for object named: LOBBY_21_DAYLIGHT
   **   ~~~   ** No glare calculation performed, and the simulation continues.
   ** Warning ** GetDaylightingControls: Fraction of zone or space controlled by the Daylighting reference points is < 1.0.
   **   ~~~   ** ..discovered in Daylighting:Controls="LOBBY_21_DAYLIGHT", only 0.900 of the zone or space is controlled.
   ** Warning ** No Glare Calculation Daylighting Reference Point Name provided for object named: CONFERENCE_21_DAYLIGHT
   **   ~~~   ** No glare calculation performed, and the simulation continues.
   ** Warning ** GetDaylightingControls: Fraction of zone or space controlled by the Daylighting reference points is < 1.0.
   **   ~~~   ** ..discovered in Daylighting:Controls="CONFERENCE_21_DAYLIGHT", only 0.900 of the zone or space is controlled.
   ** Warning ** No Glare Calculation Daylighting Reference Point Name provided for object named: BREAK_ROOM_21_DAYLIGHT
   **   ~~~   ** No glare calculation performed, and the simulation continues.
   ** Warning ** GetDaylightingControls: Fraction of zone or space controlled by the Daylighting reference points is < 1.0.
   **   ~~~   ** ..discovered in Daylighting:Controls="BREAK_ROOM_21_DAYLIGHT", only 0.900 of the zone or space is controlled.
   ** Warning ** No Glare Calculation Daylighting Reference Point Name provided for object named: OFFICE_OPEN_21_DAYLIGHT
   **   ~~~   ** No glare calculation performed, and the simulation continues.
   ** Warning ** GetDaylightingControls: Fraction of zone or space controlled by the Daylighting reference points is < 1.0.
   **   ~~~   ** ..discovered in Daylighting:Controls="OFFICE_OPEN_21_DAYLIGHT", only 0.900 of the zone or space is controlled.
   ** Warning ** No Glare Calculation Daylighting Reference Point Name provided for object named: OFFICE_PRIVATE_21_DAYLIGHT
   **   ~~~   ** No glare calculation performed, and the simulation continues.
   ** Warning ** GetDaylightingControls: Fraction of zone or space controlled by the Daylighting reference points is < 1.0.
   **   ~~~   ** ..discovered in Daylighting:Controls="OFFICE_PRIVATE_21_DAYLIGHT", only 0.900 of the zone or space is controlled.
   ** Warning ** No Glare Calculation Daylighting Reference Point Name provided for object named: LOBBY_22_DAYLIGHT
   **   ~~~   ** No glare calculation performed, and the simulation continues.
   ** Warning ** GetDaylightingControls: Fraction of zone or space controlled by the Daylighting reference points is < 1.0.
   **   ~~~   ** ..discovered in Daylighting:Controls="LOBBY_22_DAYLIGHT", only 0.900 of the zone or space is controlled.
   ** Warning ** No Glare Calculation Daylighting Reference Point Name provided for object named: CONFERENCE_22_DAYLIGHT
   **   ~~~   ** No glare calculation performed, and the simulation continues.
   ** Warning ** GetDaylightingControls: Fraction of zone or space controlled by the Daylighting reference points is < 1.0.
   **   ~~~   ** ..discovered in Daylighting:Controls="CONFERENCE_22_DAYLIGHT", only 0.900 of the zone or space is controlled.
   ** Warning ** No Glare Calculation Daylighting Reference Point Name provided for object named: BREAK_ROOM_22_DAYLIGHT
   **   ~~~   ** No glare calculation performed, and the simulation continues.
   ** Warning ** GetDaylightingControls: Fraction of zone or space controlled by the Daylighting reference points is < 1.0.
   **   ~~~   ** ..discovered in Daylighting:Controls="BREAK_ROOM_22_DAYLIGHT", only 0.900 of the zone or space is controlled.
   ** Warning ** No Glare Calculation Daylighting Reference Point Name provided for object named: OFFICE_OPEN_22_DAYLIGHT
   **   ~~~   ** No glare calculation performed, and the simulation continues.
   ** Warning ** GetDaylightingControls: Fraction of zone or space controlled by the Daylighting reference points is < 1.0.
   **   ~~~   ** ..discovered in Daylighting:Controls="OFFICE_OPEN_22_DAYLIGHT", only 0.900 of the zone or space is controlled.
   ** Warning ** No Glare Calculation Daylighting Reference Point Name provided for object named: OFFICE_PRIVATE_22_DAYLIGHT
   **   ~~~   ** No glare calculation performed, and the simulation continues.
   ** Warning ** GetDaylightingControls: Fraction of zone or space controlled by the Daylighting reference points is < 1.0.
   **   ~~~   ** ..discovered in Daylighting:Controls="OFFICE_PRIVATE_22_DAYLIGHT", only 0.900 of the zone or space is controlled.
   ** Warning ** No Glare Calculation Daylighting Reference Point Name provided for object named: LOBBY_23_DAYLIGHT
   **   ~~~   ** No glare calculation performed, and the simulation continues.
   ** Warning ** GetDaylightingControls: Fraction of zone or space controlled by the Daylighting reference points is < 1.0.
   **   ~~~   ** ..discovered in Daylighting:Controls="LOBBY_23_DAYLIGHT", only 0.900 of the zone or space is controlled.
   ** Warning ** No Glare Calculation Daylighting Reference Point Name provided for object named: CONFERENCE_23_DAYLIGHT
   **   ~~~   ** No glare calculation performed, and the simulation continues.
   ** Warning ** GetDaylightingControls: Fraction of zone or space controlled by the Daylighting reference points is < 1.0.
   **   ~~~   ** ..discovered in Daylighting:Controls="CONFERENCE_23_DAYLIGHT", only 0.900 of the zone or space is controlled.
   ** Warning ** No Glare Calculation Daylighting Reference Point Name provided for object named: BREAK_ROOM_23_DAYLIGHT
   **   ~~~   ** No glare calculation performed, and the simulation continues.
   ** Warning ** GetDaylightingControls: Fraction of zone or space controlled by the Daylighting reference points is < 1.0.
   **   ~~~   ** ..discovered in Daylighting:Controls="BREAK_ROOM_23_DAYLIGHT", only 0.900 of the zone or space is controlled.
   ** Warning ** No Glare Calculation Daylighting Reference Point Name provided for object named: OFFICE_OPEN_23_DAYLIGHT
   **   ~~~   ** No glare calculation performed, and the simulation continues.
   ** Warning ** GetDaylightingControls: Fraction of zone or space controlled by the Daylighting reference points is < 1.0.
   **   ~~~   ** ..discovered in Daylighting:Controls="OFFICE_OPEN_23_DAYLIGHT", only 0.900 of the zone or space is controlled.
   ** Warning ** No Glare Calculation Daylighting Reference Point Name provided for object named: OFFICE_PRIVATE_23_DAYLIGHT
   **   ~~~   ** No glare calculation performed, and the simulation continues.
   ** Warning ** GetDaylightingControls: Fraction of zone or space controlled by the Daylighting reference points is < 1.0.
   **   ~~~   ** ..discovered in Daylighting:Controls="OFFICE_PRIVATE_23_DAYLIGHT", only 0.900 of the zone or space is controlled.
   ** Warning ** No Glare Calculation Daylighting Reference Point Name provided for object named: LOBBY_24_DAYLIGHT
   **   ~~~   ** No glare calculation performed, and the simulation continues.
   ** Warning ** GetDaylightingControls: Fraction of zone or space controlled by the Daylighting reference points is < 1.0.
   **   ~~~   ** ..discovered in Daylighting:Controls="LOBBY_24_DAYLIGHT", only 0.900 of the zone or space is controlled.
   ** Warning ** No Glare Calculation Daylighting Reference Point Name provided for object named: CONFERENCE_24_DAYLIGHT
   **   ~~~   ** No glare calculation performed, and the simulation continues.
   ** Warning ** GetDaylightingControls: Fraction of zone or space controlled by the Daylighting reference points is < 1.0.
   **   ~~~   ** ..discovered in Daylighting:Controls="CONFERENCE_24_DAYLIGHT", only 0.900 of the zone or space is controlled.
   ** Warning ** No Glare Calculation Daylighting Reference Point Name provided for object named: BREAK_ROOM_24_DAYLIGHT
   **   ~~~   ** No glare calculation performed, and the simulation continues.
   ** Warning ** GetDaylightingControls: Fraction of zone or space controlled by the Daylighting reference points is < 1.0.
   **   ~~~   ** ..discovered in Daylighting:Controls="BREAK_ROOM_24_DAYLIGHT", only 0.900 of the zone or space is controlled.
   ** Warning ** No Glare Calculation Daylighting Reference Point Name provided for object named: OFFICE_OPEN_24_DAYLIGHT
   **   ~~~   ** No glare calculation performed, and the simulation continues.
   ** Warning ** GetDaylightingControls: Fraction of zone or space controlled by the Daylighting reference points is < 1.0.
   **   ~~~   ** ..discovered in Daylighting:Controls="OFFICE_OPEN_24_DAYLIGHT", only 0.900 of the zone or space is controlled.
   ** Warning ** No Glare Calculation Daylighting Reference Point Name provided for object named: OFFICE_PRIVATE_24_DAYLIGHT
   **   ~~~   ** No glare calculation performed, and the simulation continues.
   ** Warning ** GetDaylightingControls: Fraction of zone or space controlled by the Daylighting reference points is < 1.0.
   **   ~~~   ** ..discovered in Daylighting:Controls="OFFICE_PRIVATE_24_DAYLIGHT", only 0.900 of the zone or space is controlled.
   ** Warning ** No Glare Calculation Daylighting Reference Point Name provided for object named: LOBBY_25_DAYLIGHT
   **   ~~~   ** No glare calculation performed, and the simulation continues.
   ** Warning ** GetDaylightingControls: Fraction of zone or space controlled by the Daylighting reference points is < 1.0.
   **   ~~~   ** ..discovered in Daylighting:Controls="LOBBY_25_DAYLIGHT", only 0.900 of the zone or space is controlled.
   ** Warning ** No Glare Calculation Daylighting Reference Point Name provided for object named: CONFERENCE_25_DAYLIGHT
   **   ~~~   ** No glare calculation performed, and the simulation continues.
   ** Warning ** GetDaylightingControls: Fraction of zone or space controlled by the Daylighting reference points is < 1.0.
   **   ~~~   ** ..discovered in Daylighting:Controls="CONFERENCE_25_DAYLIGHT", only 0.900 of the zone or space is controlled.
   ** Warning ** No Glare Calculation Daylighting Reference Point Name provided for object named: BREAK_ROOM_25_DAYLIGHT
   **   ~~~   ** No glare calculation performed, and the simulation continues.
   ** Warning ** GetDaylightingControls: Fraction of zone or space controlled by the Daylighting reference points is < 1.0.
   **   ~~~   ** ..discovered in Daylighting:Controls="BREAK_ROOM_25_DAYLIGHT", only 0.900 of the zone or space is controlled.
   ** Warning ** No Glare Calculation Daylighting Reference Point Name provided for object named: OFFICE_OPEN_25_DAYLIGHT
   **   ~~~   ** No glare calculation performed, and the simulation continues.
   ** Warning ** GetDaylightingControls: Fraction of zone or space controlled by the Daylighting reference points is < 1.0.
   **   ~~~   ** ..discovered in Daylighting:Controls="OFFICE_OPEN_25_DAYLIGHT", only 0.900 of the zone or space is controlled.
   ** Warning ** No Glare Calculation Daylighting Reference Point Name provided for object named: OFFICE_PRIVATE_25_DAYLIGHT
   **   ~~~   ** No glare calculation performed, and the simulation continues.
   ** Warning ** GetDaylightingControls: Fraction of zone or space controlled by the Daylighting reference points is < 1.0.
   **   ~~~   ** ..discovered in Daylighting:Controls="OFFICE_PRIVATE_25_DAYLIGHT", only 0.900 of the zone or space is controlled.
   ** Warning ** No Glare Calculation Daylighting Reference Point Name provided for object named: LOBBY_26_DAYLIGHT
   **   ~~~   ** No glare calculation performed, and the simulation continues.
   ** Warning ** GetDaylightingControls: Fraction of zone or space controlled by the Daylighting reference points is < 1.0.
   **   ~~~   ** ..discovered in Daylighting:Controls="LOBBY_26_DAYLIGHT", only 0.900 of the zone or space is controlled.
   ** Warning ** No Glare Calculation Daylighting Reference Point Name provided for object named: CONFERENCE_26_DAYLIGHT
   **   ~~~   ** No glare calculation performed, and the simulation continues.
   ** Warning ** GetDaylightingControls: Fraction of zone or space controlled by the Daylighting reference points is < 1.0.
   **   ~~~   ** ..discovered in Daylighting:Controls="CONFERENCE_26_DAYLIGHT", only 0.900 of the zone or space is controlled.
   ** Warning ** No Glare Calculation Daylighting Reference Point Name provided for object named: BREAK_ROOM_26_DAYLIGHT
   **   ~~~   ** No glare calculation performed, and the simulation continues.
   ** Warning ** GetDaylightingControls: Fraction of zone or space controlled by the Daylighting reference points is < 1.0.
   **   ~~~   ** ..discovered in Daylighting:Controls="BREAK_ROOM_26_DAYLIGHT", only 0.900 of the zone or space is controlled.
   ** Warning ** No Glare Calculation Daylighting Reference Point Name provided for object named: OFFICE_OPEN_26_DAYLIGHT
   **   ~~~   ** No glare calculation performed, and the simulation continues.
   ** Warning ** GetDaylightingControls: Fraction of zone or space controlled by the Daylighting reference points is < 1.0.
   **   ~~~   ** ..discovered in Daylighting:Controls="OFFICE_OPEN_26_DAYLIGHT", only 0.900 of the zone or space is controlled.
   ** Warning ** No Glare Calculation Daylighting Reference Point Name provided for object named: OFFICE_PRIVATE_26_DAYLIGHT
   **   ~~~   ** No glare calculation performed, and the simulation continues.
   ** Warning ** GetDaylightingControls: Fraction of zone or space controlled by the Daylighting reference points is < 1.0.
   **   ~~~   ** ..discovered in Daylighting:Controls="OFFICE_PRIVATE_26_DAYLIGHT", only 0.900 of the zone or space is controlled.
   ** Warning ** No Glare Calculation Daylighting Reference Point Name provided for object named: LOBBY_27_DAYLIGHT
   **   ~~~   ** No glare calculation performed, and the simulation continues.
   ** Warning ** GetDaylightingControls: Fraction of zone or space controlled by the Daylighting reference points is < 1.0.
   **   ~~~   ** ..discovered in Daylighting:Controls="LOBBY_27_DAYLIGHT", only 0.900 of the zone or space is controlled.
   ** Warning ** No Glare Calculation Daylighting Reference Point Name provided for object named: CONFERENCE_27_DAYLIGHT
   **   ~~~   ** No glare calculation performed, and the simulation continues.
   ** Warning ** GetDaylightingControls: Fraction of zone or space controlled by the Daylighting reference points is < 1.0.
   **   ~~~   ** ..discovered in Daylighting:Controls="CONFERENCE_27_DAYLIGHT", only 0.900 of the zone or space is controlled.
   ** Warning ** No Glare Calculation Daylighting Reference Point Name provided for object named: BREAK_ROOM_27_DAYLIGHT
   **   ~~~   ** No glare calculation performed, and the simulation continues.
   ** Warning ** GetDaylightingControls: Fraction of zone or space controlled by the Daylighting reference points is < 1.0.
   **   ~~~   ** ..discovered in Daylighting:Controls="BREAK_ROOM_27_DAYLIGHT", only 0.900 of the zone or space is controlled.
   ** Warning ** No Glare Calculation Daylighting Reference Point Name provided for object named: OFFICE_OPEN_27_DAYLIGHT
   **   ~~~   ** No glare calculation performed, and the simulation continues.
   ** Warning ** GetDaylightingControls: Fraction of zone or space controlled by the Daylighting reference points is < 1.0.
   **   ~~~   ** ..discovered in Daylighting:Controls="OFFICE_OPEN_27_DAYLIGHT", only 0.900 of the zone or space is controlled.
   ** Warning ** No Glare Calculation Daylighting Reference Point Name provided for object named: LOBBY_28_DAYLIGHT
   **   ~~~   ** No glare calculation performed, and the simulation continues.
   ** Warning ** GetDaylightingControls: Fraction of zone or space controlled by the Daylighting reference points is < 1.0.
   **   ~~~   ** ..discovered in Daylighting:Controls="LOBBY_28_DAYLIGHT", only 0.900 of the zone or space is controlled.
   ** Warning ** No Glare Calculation Daylighting Reference Point Name provided for object named: CONFERENCE_28_DAYLIGHT
   **   ~~~   ** No glare calculation performed, and the simulation continues.
   ** Warning ** GetDaylightingControls: Fraction of zone or space controlled by the Daylighting reference points is < 1.0.
   **   ~~~   ** ..discovered in Daylighting:Controls="CONFERENCE_28_DAYLIGHT", only 0.900 of the zone or space is controlled.
   ** Warning ** No Glare Calculation Daylighting Reference Point Name provided for object named: BREAK_ROOM_28_DAYLIGHT
   **   ~~~   ** No glare calculation performed, and the simulation continues.
   ** Warning ** GetDaylightingControls: Fraction of zone or space controlled by the Daylighting reference points is < 1.0.
   **   ~~~   ** ..discovered in Daylighting:Controls="BREAK_ROOM_28_DAYLIGHT", only 0.900 of the zone or space is controlled.
   ** Warning ** No Glare Calculation Daylighting Reference Point Name provided for object named: OFFICE_OPEN_28_DAYLIGHT
   **   ~~~   ** No glare calculation performed, and the simulation continues.
   ** Warning ** GetDaylightingControls: Fraction of zone or space controlled by the Daylighting reference points is < 1.0.
   **   ~~~   ** ..discovered in Daylighting:Controls="OFFICE_OPEN_28_DAYLIGHT", only 0.900 of the zone or space is controlled.
   ** Warning ** No Glare Calculation Daylighting Reference Point Name provided for object named: CONFERENCE_29_DAYLIGHT
   **   ~~~   ** No glare calculation performed, and the simulation continues.
   ** Warning ** GetDaylightingControls: Fraction of zone or space controlled by the Daylighting reference points is < 1.0.
   **   ~~~   ** ..discovered in Daylighting:Controls="CONFERENCE_29_DAYLIGHT", only 0.900 of the zone or space is controlled.
   ** Warning ** No Glare Calculation Daylighting Reference Point Name provided for object named: BREAK_ROOM_29_DAYLIGHT
   **   ~~~   ** No glare calculation performed, and the simulation continues.
   ** Warning ** GetDaylightingControls: Fraction of zone or space controlled by the Daylighting reference points is < 1.0.
   **   ~~~   ** ..discovered in Daylighting:Controls="BREAK_ROOM_29_DAYLIGHT", only 0.900 of the zone or space is controlled.
   ** Warning ** No Glare Calculation Daylighting Reference Point Name provided for object named: OFFICE_OPEN_29_DAYLIGHT
   **   ~~~   ** No glare calculation performed, and the simulation continues.
   ** Warning ** GetDaylightingControls: Fraction of zone or space controlled by the Daylighting reference points is < 1.0.
   **   ~~~   ** ..discovered in Daylighting:Controls="OFFICE_OPEN_29_DAYLIGHT", only 0.900 of the zone or space is controlled.
   ** Warning ** No Glare Calculation Daylighting Reference Point Name provided for object named: OFFICE_PRIVATE_29_DAYLIGHT
   **   ~~~   ** No glare calculation performed, and the simulation continues.
   ** Warning ** GetDaylightingControls: Fraction of zone or space controlled by the Daylighting reference points is < 1.0.
   **   ~~~   ** ..discovered in Daylighting:Controls="OFFICE_PRIVATE_29_DAYLIGHT", only 0.900 of the zone or space is controlled.
   ** Warning ** No Glare Calculation Daylighting Reference Point Name provided for object named: LOBBY_30_DAYLIGHT
   **   ~~~   ** No glare calculation performed, and the simulation continues.
   ** Warning ** GetDaylightingControls: Fraction of zone or space controlled by the Daylighting reference points is < 1.0.
   **   ~~~   ** ..discovered in Daylighting:Controls="LOBBY_30_DAYLIGHT", only 0.900 of the zone or space is controlled.
   ** Warning ** No Glare Calculation Daylighting Reference Point Name provided for object named: CONFERENCE_30_DAYLIGHT
   **   ~~~   ** No glare calculation performed, and the simulation continues.
   ** Warning ** GetDaylightingControls: Fraction of zone or space controlled by the Daylighting reference points is < 1.0.
   **   ~~~   ** ..discovered in Daylighting:Controls="CONFERENCE_30_DAYLIGHT", only 0.900 of the zone or space is controlled.
   ** Warning ** No Glare Calculation Daylighting Reference Point Name provided for object named: BREAK_ROOM_30_DAYLIGHT
   **   ~~~   ** No glare calculation performed, and the simulation continues.
   ** Warning ** GetDaylightingControls: Fraction of zone or space controlled by the Daylighting reference points is < 1.0.
   **   ~~~   ** ..discovered in Daylighting:Controls="BREAK_ROOM_30_DAYLIGHT", only 0.900 of the zone or space is controlled.
   ** Warning ** No Glare Calculation Daylighting Reference Point Name provided for object named: OFFICE_OPEN_30_DAYLIGHT
   **   ~~~   ** No glare calculation performed, and the simulation continues.
   ** Warning ** GetDaylightingControls: Fraction of zone or space controlled by the Daylighting reference points is < 1.0.
   **   ~~~   ** ..discovered in Daylighting:Controls="OFFICE_OPEN_30_DAYLIGHT", only 0.900 of the zone or space is controlled.
   ** Warning ** No Glare Calculation Daylighting Reference Point Name provided for object named: OFFICE_PRIVATE_30_DAYLIGHT
   **   ~~~   ** No glare calculation performed, and the simulation continues.
   ** Warning ** GetDaylightingControls: Fraction of zone or space controlled by the Daylighting reference points is < 1.0.
   **   ~~~   ** ..discovered in Daylighting:Controls="OFFICE_PRIVATE_30_DAYLIGHT", only 0.900 of the zone or space is controlled.
   ** Warning ** No Glare Calculation Daylighting Reference Point Name provided for object named: LOBBY_31_DAYLIGHT
   **   ~~~   ** No glare calculation performed, and the simulation continues.
   ** Warning ** GetDaylightingControls: Fraction of zone or space controlled by the Daylighting reference points is < 1.0.
   **   ~~~   ** ..discovered in Daylighting:Controls="LOBBY_31_DAYLIGHT", only 0.900 of the zone or space is controlled.
   ** Warning ** No Glare Calculation Daylighting Reference Point Name provided for object named: CONFERENCE_31_DAYLIGHT
   **   ~~~   ** No glare calculation performed, and the simulation continues.
   ** Warning ** GetDaylightingControls: Fraction of zone or space controlled by the Daylighting reference points is < 1.0.
   **   ~~~   ** ..discovered in Daylighting:Controls="CONFERENCE_31_DAYLIGHT", only 0.900 of the zone or space is controlled.
   ** Warning ** No Glare Calculation Daylighting Reference Point Name provided for object named: OFFICE_OPEN_31_DAYLIGHT
   **   ~~~   ** No glare calculation performed, and the simulation continues.
   ** Warning ** GetDaylightingControls: Fraction of zone or space controlled by the Daylighting reference points is < 1.0.
   **   ~~~   ** ..discovered in Daylighting:Controls="OFFICE_OPEN_31_DAYLIGHT", only 0.900 of the zone or space is controlled.
   ** Warning ** No Glare Calculation Daylighting Reference Point Name provided for object named: OFFICE_PRIVATE_31_DAYLIGHT
   **   ~~~   ** No glare calculation performed, and the simulation continues.
   ** Warning ** GetDaylightingControls: Fraction of zone or space controlled by the Daylighting reference points is < 1.0.
   **   ~~~   ** ..discovered in Daylighting:Controls="OFFICE_PRIVATE_31_DAYLIGHT", only 0.900 of the zone or space is controlled.
   ** Warning ** No Glare Calculation Daylighting Reference Point Name provided for object named: LOBBY_32_DAYLIGHT
   **   ~~~   ** No glare calculation performed, and the simulation continues.
   ** Warning ** GetDaylightingControls: Fraction of zone or space controlled by the Daylighting reference points is < 1.0.
   **   ~~~   ** ..discovered in Daylighting:Controls="LOBBY_32_DAYLIGHT", only 0.900 of the zone or space is controlled.
   ** Warning ** No Glare Calculation Daylighting Reference Point Name provided for object named: BREAK_ROOM_32_DAYLIGHT
   **   ~~~   ** No glare calculation performed, and the simulation continues.
   ** Warning ** GetDaylightingControls: Fraction of zone or space controlled by the Daylighting reference points is < 1.0.
   **   ~~~   ** ..discovered in Daylighting:Controls="BREAK_ROOM_32_DAYLIGHT", only 0.900 of the zone or space is controlled.
   ** Warning ** No Glare Calculation Daylighting Reference Point Name provided for object named: OFFICE_OPEN_32_DAYLIGHT
   **   ~~~   ** No glare calculation performed, and the simulation continues.
   ** Warning ** GetDaylightingControls: Fraction of zone or space controlled by the Daylighting reference points is < 1.0.
   **   ~~~   ** ..discovered in Daylighting:Controls="OFFICE_OPEN_32_DAYLIGHT", only 0.900 of the zone or space is controlled.
   ** Warning ** No Glare Calculation Daylighting Reference Point Name provided for object named: OFFICE_PRIVATE_32_DAYLIGHT
   **   ~~~   ** No glare calculation performed, and the simulation continues.
   ** Warning ** GetDaylightingControls: Fraction of zone or space controlled by the Daylighting reference points is < 1.0.
   **   ~~~   ** ..discovered in Daylighting:Controls="OFFICE_PRIVATE_32_DAYLIGHT", only 0.900 of the zone or space is controlled.
   ** Warning ** No Glare Calculation Daylighting Reference Point Name provided for object named: LOBBY_33_DAYLIGHT
   **   ~~~   ** No glare calculation performed, and the simulation continues.
   ** Warning ** GetDaylightingControls: Fraction of zone or space controlled by the Daylighting reference points is < 1.0.
   **   ~~~   ** ..discovered in Daylighting:Controls="LOBBY_33_DAYLIGHT", only 0.900 of the zone or space is controlled.
   ** Warning ** No Glare Calculation Daylighting Reference Point Name provided for object named: CONFERENCE_33_DAYLIGHT
   **   ~~~   ** No glare calculation performed, and the simulation continues.
   ** Warning ** GetDaylightingControls: Fraction of zone or space controlled by the Daylighting reference points is < 1.0.
   **   ~~~   ** ..discovered in Daylighting:Controls="CONFERENCE_33_DAYLIGHT", only 0.900 of the zone or space is controlled.
   ** Warning ** No Glare Calculation Daylighting Reference Point Name provided for object named: BREAK_ROOM_33_DAYLIGHT
   **   ~~~   ** No glare calculation performed, and the simulation continues.
   ** Warning ** GetDaylightingControls: Fraction of zone or space controlled by the Daylighting reference points is < 1.0.
   **   ~~~   ** ..discovered in Daylighting:Controls="BREAK_ROOM_33_DAYLIGHT", only 0.900 of the zone or space is controlled.
   ** Warning ** No Glare Calculation Daylighting Reference Point Name provided for object named: OFFICE_OPEN_33_DAYLIGHT
   **   ~~~   ** No glare calculation performed, and the simulation continues.
   ** Warning ** GetDaylightingControls: Fraction of zone or space controlled by the Daylighting reference points is < 1.0.
   **   ~~~   ** ..discovered in Daylighting:Controls="OFFICE_OPEN_33_DAYLIGHT", only 0.900 of the zone or space is controlled.
   ** Warning ** No Glare Calculation Daylighting Reference Point Name provided for object named: OFFICE_PRIVATE_33_DAYLIGHT
   **   ~~~   ** No glare calculation performed, and the simulation continues.
   ** Warning ** GetDaylightingControls: Fraction of zone or space controlled by the Daylighting reference points is < 1.0.
   **   ~~~   ** ..discovered in Daylighting:Controls="OFFICE_PRIVATE_33_DAYLIGHT", only 0.900 of the zone or space is controlled.
   ** Warning ** No Glare Calculation Daylighting Reference Point Name provided for object named: LOBBY_34_DAYLIGHT
   **   ~~~   ** No glare calculation performed, and the simulation continues.
   ** Warning ** GetDaylightingControls: Fraction of zone or space controlled by the Daylighting reference points is < 1.0.
   **   ~~~   ** ..discovered in Daylighting:Controls="LOBBY_34_DAYLIGHT", only 0.900 of the zone or space is controlled.
   ** Warning ** No Glare Calculation Daylighting Reference Point Name provided for object named: CONFERENCE_34_DAYLIGHT
   **   ~~~   ** No glare calculation performed, and the simulation continues.
   ** Warning ** GetDaylightingControls: Fraction of zone or space controlled by the Daylighting reference points is < 1.0.
   **   ~~~   ** ..discovered in Daylighting:Controls="CONFERENCE_34_DAYLIGHT", only 0.900 of the zone or space is controlled.
   ** Warning ** No Glare Calculation Daylighting Reference Point Name provided for object named: BREAK_ROOM_34_DAYLIGHT
   **   ~~~   ** No glare calculation performed, and the simulation continues.
   ** Warning ** GetDaylightingControls: Fraction of zone or space controlled by the Daylighting reference points is < 1.0.
   **   ~~~   ** ..discovered in Daylighting:Controls="BREAK_ROOM_34_DAYLIGHT", only 0.900 of the zone or space is controlled.
   ** Warning ** No Glare Calculation Daylighting Reference Point Name provided for object named: OFFICE_OPEN_34_DAYLIGHT
   **   ~~~   ** No glare calculation performed, and the simulation continues.
   ** Warning ** GetDaylightingControls: Fraction of zone or space controlled by the Daylighting reference points is < 1.0.
   **   ~~~   ** ..discovered in Daylighting:Controls="OFFICE_OPEN_34_DAYLIGHT", only 0.900 of the zone or space is controlled.
   ** Warning ** No Glare Calculation Daylighting Reference Point Name provided for object named: OFFICE_PRIVATE_34_DAYLIGHT
   **   ~~~   ** No glare calculation performed, and the simulation continues.
   ** Warning ** GetDaylightingControls: Fraction of zone or space controlled by the Daylighting reference points is < 1.0.
   **   ~~~   ** ..discovered in Daylighting:Controls="OFFICE_PRIVATE_34_DAYLIGHT", only 0.900 of the zone or space is controlled.
   ** Warning ** No Glare Calculation Daylighting Reference Point Name provided for object named: LOBBY_35_DAYLIGHT
   **   ~~~   ** No glare calculation performed, and the simulation continues.
   ** Warning ** GetDaylightingControls: Fraction of zone or space controlled by the Daylighting reference points is < 1.0.
   **   ~~~   ** ..discovered in Daylighting:Controls="LOBBY_35_DAYLIGHT", only 0.900 of the zone or space is controlled.
   ** Warning ** No Glare Calculation Daylighting Reference Point Name provided for object named: CONFERENCE_35_DAYLIGHT
   **   ~~~   ** No glare calculation performed, and the simulation continues.
   ** Warning ** GetDaylightingControls: Fraction of zone or space controlled by the Daylighting reference points is < 1.0.
[...]
   **   ~~~   ** or variable air volume [VAV] system using incorrect coil type.
   ** Warning ** CalcDoe2DXCoil: Coil:Cooling:DX:SingleSpeed "MECHANICAL_82_Z544_COOLINGCOILDX" - Full load outlet air dry-bulb temperature < 2C. This indicates the possibility of coil frost/freeze. Outlet temperature = -44.70 C.
   **   ~~~   **  ...Occurrence info = YEAR ROUND RUN PERIOD, 03/10 11:20 - 11:25
   **   ~~~   ** ... Possible reasons for low outlet air dry-bulb temperatures are: This DX coil
   **   ~~~   **    1) may have a low inlet air dry-bulb temperature. Inlet air temperature = 24.102 C.
   **   ~~~   **    2) may have a low air flow rate per watt of cooling capacity. Check inputs.
   **   ~~~   **    3) is used as part of a HX assisted cooling coil which uses a high sensible effectiveness. Check inputs.
   ** Warning ** CalcDoe2DXCoil: Coil:Cooling:DX:SingleSpeed="LOBBY_73_Z480_COOLINGCOILDX" - Air volume flow rate per watt of rated total cooling capacity is out of range at 1.035E-005 m3/s/W.
   **   ~~~   **  Environment=YEAR ROUND RUN PERIOD, at Simulation time=03/10 11:25 - 11:30
   **   ~~~   ** Expected range for VolumeFlowPerRatedTotalCapacity=[2.684E-005--6.713E-005]
   **   ~~~   ** Possible causes include inconsistent air flow rates in system components,
   **   ~~~   ** or variable air volume [VAV] system using incorrect coil type.
   ** Warning ** CalcDoe2DXCoil: Coil:Cooling:DX:SingleSpeed "LOBBY_73_Z480_COOLINGCOILDX" - Full load outlet air dry-bulb temperature < 2C. This indicates the possibility of coil frost/freeze. Outlet temperature = -43.67 C.
   **   ~~~   **  ...Occurrence info = YEAR ROUND RUN PERIOD, 03/10 11:25 - 11:30
   **   ~~~   ** ... Possible reasons for low outlet air dry-bulb temperatures are: This DX coil
   **   ~~~   **    1) may have a low inlet air dry-bulb temperature. Inlet air temperature = 24.112 C.
   **   ~~~   **    2) may have a low air flow rate per watt of cooling capacity. Check inputs.
   **   ~~~   **    3) is used as part of a HX assisted cooling coil which uses a high sensible effectiveness. Check inputs.
   ** Warning ** CalcDoe2DXCoil: Coil:Cooling:DX:SingleSpeed="LOBBY_74_Z487_COOLINGCOILDX" - Air volume flow rate per watt of rated total cooling capacity is out of range at 1.036E-005 m3/s/W.
   **   ~~~   **  Environment=YEAR ROUND RUN PERIOD, at Simulation time=03/10 11:55 - 12:00
   **   ~~~   ** Expected range for VolumeFlowPerRatedTotalCapacity=[2.684E-005--6.713E-005]
   **   ~~~   ** Possible causes include inconsistent air flow rates in system components,
   **   ~~~   ** or variable air volume [VAV] system using incorrect coil type.
   ** Warning ** CalcDoe2DXCoil: Coil:Cooling:DX:SingleSpeed "LOBBY_74_Z487_COOLINGCOILDX" - Full load outlet air dry-bulb temperature < 2C. This indicates the possibility of coil frost/freeze. Outlet temperature = -43.65 C.
   **   ~~~   **  ...Occurrence info = YEAR ROUND RUN PERIOD, 03/10 11:55 - 12:00
   **   ~~~   ** ... Possible reasons for low outlet air dry-bulb temperatures are: This DX coil
   **   ~~~   **    1) may have a low inlet air dry-bulb temperature. Inlet air temperature = 24.112 C.
   **   ~~~   **    2) may have a low air flow rate per watt of cooling capacity. Check inputs.
   **   ~~~   **    3) is used as part of a HX assisted cooling coil which uses a high sensible effectiveness. Check inputs.
   ** Warning ** CalcDoe2DXCoil: Coil:Cooling:DX:SingleSpeed="LOBBY_65_Z427_COOLINGCOILDX" - Air volume flow rate per watt of rated total cooling capacity is out of range at 1.037E-005 m3/s/W.
   **   ~~~   **  Environment=YEAR ROUND RUN PERIOD, at Simulation time=03/10 12:20 - 12:25
   **   ~~~   ** Expected range for VolumeFlowPerRatedTotalCapacity=[2.684E-005--6.713E-005]
   **   ~~~   ** Possible causes include inconsistent air flow rates in system components,
   **   ~~~   ** or variable air volume [VAV] system using incorrect coil type.
   ** Warning ** CalcDoe2DXCoil: Coil:Cooling:DX:SingleSpeed "LOBBY_65_Z427_COOLINGCOILDX" - Full load outlet air dry-bulb temperature < 2C. This indicates the possibility of coil frost/freeze. Outlet temperature = -43.63 C.
   **   ~~~   **  ...Occurrence info = YEAR ROUND RUN PERIOD, 03/10 12:20 - 12:25
   **   ~~~   ** ... Possible reasons for low outlet air dry-bulb temperatures are: This DX coil
   **   ~~~   **    1) may have a low inlet air dry-bulb temperature. Inlet air temperature = 24.149 C.
   **   ~~~   **    2) may have a low air flow rate per watt of cooling capacity. Check inputs.
   **   ~~~   **    3) is used as part of a HX assisted cooling coil which uses a high sensible effectiveness. Check inputs.
   ** Warning ** CalcDoe2DXCoil: Coil:Cooling:DX:SingleSpeed "MECHANICAL_93_Z616_COOLINGCOILDX" - Full load outlet air dry-bulb temperature < 2C. This indicates the possibility of coil frost/freeze. Outlet temperature = -44.50 C.
   **   ~~~   **  ...Occurrence info = YEAR ROUND RUN PERIOD, 03/10 12:20 - 12:25
   **   ~~~   ** ... Possible reasons for low outlet air dry-bulb temperatures are: This DX coil
   **   ~~~   **    1) may have a low inlet air dry-bulb temperature. Inlet air temperature = 24.152 C.
   **   ~~~   **    2) may have a low air flow rate per watt of cooling capacity. Check inputs.
   **   ~~~   **    3) is used as part of a HX assisted cooling coil which uses a high sensible effectiveness. Check inputs.
   ** Warning ** CalcDoe2DXCoil: Coil:Cooling:DX:SingleSpeed="LOBBY_71_Z467_COOLINGCOILDX" - Air volume flow rate per watt of rated total cooling capacity is out of range at 1.036E-005 m3/s/W.
   **   ~~~   **  Environment=YEAR ROUND RUN PERIOD, at Simulation time=03/10 12:35 - 12:40
   **   ~~~   ** Expected range for VolumeFlowPerRatedTotalCapacity=[2.684E-005--6.713E-005]
   **   ~~~   ** Possible causes include inconsistent air flow rates in system components,
   **   ~~~   ** or variable air volume [VAV] system using incorrect coil type.
   ** Warning ** CalcDoe2DXCoil: Coil:Cooling:DX:SingleSpeed="MECHANICAL_100_Z661_COOLINGCOILDX" - Air volume flow rate per watt of rated total cooling capacity is out of range at 1.032E-005 m3/s/W.
   **   ~~~   **  Environment=YEAR ROUND RUN PERIOD, at Simulation time=03/10 12:35 - 12:40
   **   ~~~   ** Expected range for VolumeFlowPerRatedTotalCapacity=[2.684E-005--6.713E-005]
   **   ~~~   ** Possible causes include inconsistent air flow rates in system components,
   **   ~~~   ** or variable air volume [VAV] system using incorrect coil type.
   ** Warning ** CalcDoe2DXCoil: Coil:Cooling:DX:SingleSpeed "LOBBY_71_Z467_COOLINGCOILDX" - Full load outlet air dry-bulb temperature < 2C. This indicates the possibility of coil frost/freeze. Outlet temperature = -43.79 C.
   **   ~~~   **  ...Occurrence info = YEAR ROUND RUN PERIOD, 03/10 12:35 - 12:40
   **   ~~~   ** ... Possible reasons for low outlet air dry-bulb temperatures are: This DX coil
   **   ~~~   **    1) may have a low inlet air dry-bulb temperature. Inlet air temperature = 24.115 C.
   **   ~~~   **    2) may have a low air flow rate per watt of cooling capacity. Check inputs.
   **   ~~~   **    3) is used as part of a HX assisted cooling coil which uses a high sensible effectiveness. Check inputs.
   ** Warning ** CalcDoe2DXCoil: Coil:Cooling:DX:SingleSpeed "MECHANICAL_100_Z661_COOLINGCOILDX" - Full load outlet air dry-bulb temperature < 2C. This indicates the possibility of coil frost/freeze. Outlet temperature = -44.51 C.
   **   ~~~   **  ...Occurrence info = YEAR ROUND RUN PERIOD, 03/10 12:35 - 12:40
   **   ~~~   ** ... Possible reasons for low outlet air dry-bulb temperatures are: This DX coil
   **   ~~~   **    1) may have a low inlet air dry-bulb temperature. Inlet air temperature = 24.159 C.
   **   ~~~   **    2) may have a low air flow rate per watt of cooling capacity. Check inputs.
   **   ~~~   **    3) is used as part of a HX assisted cooling coil which uses a high sensible effectiveness. Check inputs.
   ** Warning ** CalcDoe2DXCoil: Coil:Cooling:DX:SingleSpeed="MECHANICAL_85_Z563_COOLINGCOILDX" - Air volume flow rate per watt of rated total cooling capacity is out of range at 1.031E-005 m3/s/W.
   **   ~~~   **  Environment=YEAR ROUND RUN PERIOD, at Simulation time=03/10 12:55 - 13:00
   **   ~~~   ** Expected range for VolumeFlowPerRatedTotalCapacity=[2.684E-005--6.713E-005]
   **   ~~~   ** Possible causes include inconsistent air flow rates in system components,
   **   ~~~   ** or variable air volume [VAV] system using incorrect coil type.
   ** Warning ** CalcDoe2DXCoil: Coil:Cooling:DX:SingleSpeed "MECHANICAL_85_Z563_COOLINGCOILDX" - Full load outlet air dry-bulb temperature < 2C. This indicates the possibility of coil frost/freeze. Outlet temperature = -44.53 C.
   **   ~~~   **  ...Occurrence info = YEAR ROUND RUN PERIOD, 03/10 12:55 - 13:00
   **   ~~~   ** ... Possible reasons for low outlet air dry-bulb temperatures are: This DX coil
   **   ~~~   **    1) may have a low inlet air dry-bulb temperature. Inlet air temperature = 24.132 C.
   **   ~~~   **    2) may have a low air flow rate per watt of cooling capacity. Check inputs.
   **   ~~~   **    3) is used as part of a HX assisted cooling coil which uses a high sensible effectiveness. Check inputs.
   ** Warning ** CalcDoe2DXCoil: Coil:Cooling:DX:SingleSpeed="MECHANICAL_76_Z504_COOLINGCOILDX" - Air volume flow rate per watt of rated total cooling capacity is out of range at 1.032E-005 m3/s/W.
   **   ~~~   **  Environment=YEAR ROUND RUN PERIOD, at Simulation time=03/10 13:00 - 13:15
   **   ~~~   ** Expected range for VolumeFlowPerRatedTotalCapacity=[2.684E-005--6.713E-005]
   **   ~~~   ** Possible causes include inconsistent air flow rates in system components,
   **   ~~~   ** or variable air volume [VAV] system using incorrect coil type.
   ** Warning ** CalcDoe2DXCoil: Coil:Cooling:DX:SingleSpeed="MECHANICAL_95_Z630_COOLINGCOILDX" - Air volume flow rate per watt of rated total cooling capacity is out of range at 1.032E-005 m3/s/W.
   **   ~~~   **  Environment=YEAR ROUND RUN PERIOD, at Simulation time=03/10 13:00 - 13:15
   **   ~~~   ** Expected range for VolumeFlowPerRatedTotalCapacity=[2.684E-005--6.713E-005]
   **   ~~~   ** Possible causes include inconsistent air flow rates in system components,
   **   ~~~   ** or variable air volume [VAV] system using incorrect coil type.
   ** Warning ** CalcDoe2DXCoil: Coil:Cooling:DX:SingleSpeed "MECHANICAL_76_Z504_COOLINGCOILDX" - Full load outlet air dry-bulb temperature < 2C. This indicates the possibility of coil frost/freeze. Outlet temperature = -44.54 C.
   **   ~~~   **  ...Occurrence info = YEAR ROUND RUN PERIOD, 03/10 13:05 - 13:10
   **   ~~~   ** ... Possible reasons for low outlet air dry-bulb temperatures are: This DX coil
   **   ~~~   **    1) may have a low inlet air dry-bulb temperature. Inlet air temperature = 24.238 C.
   **   ~~~   **    2) may have a low air flow rate per watt of cooling capacity. Check inputs.
   **   ~~~   **    3) is used as part of a HX assisted cooling coil which uses a high sensible effectiveness. Check inputs.
   ** Warning ** CalcDoe2DXCoil: Coil:Cooling:DX:SingleSpeed "MECHANICAL_95_Z630_COOLINGCOILDX" - Full load outlet air dry-bulb temperature < 2C. This indicates the possibility of coil frost/freeze. Outlet temperature = -44.54 C.
   **   ~~~   **  ...Occurrence info = YEAR ROUND RUN PERIOD, 03/10 13:05 - 13:10
   **   ~~~   ** ... Possible reasons for low outlet air dry-bulb temperatures are: This DX coil
   **   ~~~   **    1) may have a low inlet air dry-bulb temperature. Inlet air temperature = 24.114 C.
   **   ~~~   **    2) may have a low air flow rate per watt of cooling capacity. Check inputs.
   **   ~~~   **    3) is used as part of a HX assisted cooling coil which uses a high sensible effectiveness. Check inputs.
   ** Warning ** CalcDoe2DXCoil: Coil:Cooling:DX:SingleSpeed="MECHANICAL_91_Z605_COOLINGCOILDX" - Air volume flow rate per watt of rated total cooling capacity is out of range at 1.031E-005 m3/s/W.
   **   ~~~   **  Environment=YEAR ROUND RUN PERIOD, at Simulation time=03/10 13:10 - 13:15
   **   ~~~   ** Expected range for VolumeFlowPerRatedTotalCapacity=[2.684E-005--6.713E-005]
   **   ~~~   ** Possible causes include inconsistent air flow rates in system components,
   **   ~~~   ** or variable air volume [VAV] system using incorrect coil type.
   ** Warning ** CalcDoe2DXCoil: Coil:Cooling:DX:SingleSpeed "MECHANICAL_91_Z605_COOLINGCOILDX" - Full load outlet air dry-bulb temperature < 2C. This indicates the possibility of coil frost/freeze. Outlet temperature = -44.63 C.
   **   ~~~   **  ...Occurrence info = YEAR ROUND RUN PERIOD, 03/10 13:10 - 13:15
   **   ~~~   ** ... Possible reasons for low outlet air dry-bulb temperatures are: This DX coil
   **   ~~~   **    1) may have a low inlet air dry-bulb temperature. Inlet air temperature = 24.247 C.
   **   ~~~   **    2) may have a low air flow rate per watt of cooling capacity. Check inputs.
   **   ~~~   **    3) is used as part of a HX assisted cooling coil which uses a high sensible effectiveness. Check inputs.
   ** Warning ** CalcDoe2DXCoil: Coil:Cooling:DX:SingleSpeed="MECHANICAL_64_Z423_COOLINGCOILDX" - Air volume flow rate per watt of rated total cooling capacity is out of range at 1.032E-005 m3/s/W.
   **   ~~~   **  Environment=YEAR ROUND RUN PERIOD, at Simulation time=03/10 13:15 - 13:30
   **   ~~~   ** Expected range for VolumeFlowPerRatedTotalCapacity=[2.684E-005--6.713E-005]
   **   ~~~   ** Possible causes include inconsistent air flow rates in system components,
   **   ~~~   ** or variable air volume [VAV] system using incorrect coil type.
   ** Warning ** CalcDoe2DXCoil: Coil:Cooling:DX:SingleSpeed="LOBBY_44_Z289_COOLINGCOILDX" - Air volume flow rate per watt of rated total cooling capacity is out of range at 1.039E-005 m3/s/W.
   **   ~~~   **  Environment=YEAR ROUND RUN PERIOD, at Simulation time=03/10 13:20 - 13:25
   **   ~~~   ** Expected range for VolumeFlowPerRatedTotalCapacity=[2.684E-005--6.713E-005]
   **   ~~~   ** Possible causes include inconsistent air flow rates in system components,
   **   ~~~   ** or variable air volume [VAV] system using incorrect coil type.
   ** Warning ** CalcDoe2DXCoil: Coil:Cooling:DX:SingleSpeed "LOBBY_44_Z289_COOLINGCOILDX" - Full load outlet air dry-bulb temperature < 2C. This indicates the possibility of coil frost/freeze. Outlet temperature = -43.39 C.
   **   ~~~   **  ...Occurrence info = YEAR ROUND RUN PERIOD, 03/10 13:20 - 13:25
   **   ~~~   ** ... Possible reasons for low outlet air dry-bulb temperatures are: This DX coil
   **   ~~~   **    1) may have a low inlet air dry-bulb temperature. Inlet air temperature = 24.137 C.
   **   ~~~   **    2) may have a low air flow rate per watt of cooling capacity. Check inputs.
   **   ~~~   **    3) is used as part of a HX assisted cooling coil which uses a high sensible effectiveness. Check inputs.
   ** Warning ** CalcDoe2DXCoil: Coil:Cooling:DX:SingleSpeed "MECHANICAL_64_Z423_COOLINGCOILDX" - Full load outlet air dry-bulb temperature < 2C. This indicates the possibility of coil frost/freeze. Outlet temperature = -44.53 C.
   **   ~~~   **  ...Occurrence info = YEAR ROUND RUN PERIOD, 03/10 13:20 - 13:25
   **   ~~~   ** ... Possible reasons for low outlet air dry-bulb temperatures are: This DX coil
   **   ~~~   **    1) may have a low inlet air dry-bulb temperature. Inlet air temperature = 24.132 C.
   **   ~~~   **    2) may have a low air flow rate per watt of cooling capacity. Check inputs.
   **   ~~~   **    3) is used as part of a HX assisted cooling coil which uses a high sensible effectiveness. Check inputs.
   ** Warning ** CalcDoe2DXCoil: Coil:Cooling:DX:SingleSpeed="MECHANICAL_77_Z510_COOLINGCOILDX" - Air volume flow rate per watt of rated total cooling capacity is out of range at 1.033E-005 m3/s/W.
   **   ~~~   **  Environment=YEAR ROUND RUN PERIOD, at Simulation time=03/10 13:55 - 14:00
   **   ~~~   ** Expected range for VolumeFlowPerRatedTotalCapacity=[2.684E-005--6.713E-005]
   **   ~~~   ** Possible causes include inconsistent air flow rates in system components,
   **   ~~~   ** or variable air volume [VAV] system using incorrect coil type.
   ** Warning ** CalcDoe2DXCoil: Coil:Cooling:DX:SingleSpeed "MECHANICAL_77_Z510_COOLINGCOILDX" - Full load outlet air dry-bulb temperature < 2C. This indicates the possibility of coil frost/freeze. Outlet temperature = -44.46 C.
   **   ~~~   **  ...Occurrence info = YEAR ROUND RUN PERIOD, 03/10 13:55 - 14:00
   **   ~~~   ** ... Possible reasons for low outlet air dry-bulb temperatures are: This DX coil
   **   ~~~   **    1) may have a low inlet air dry-bulb temperature. Inlet air temperature = 24.167 C.
   **   ~~~   **    2) may have a low air flow rate per watt of cooling capacity. Check inputs.
   **   ~~~   **    3) is used as part of a HX assisted cooling coil which uses a high sensible effectiveness. Check inputs.
   ** Warning ** CalcDoe2DXCoil: Coil:Cooling:DX:SingleSpeed="LOBBY_84_Z553_COOLINGCOILDX" - Air volume flow rate per watt of rated total cooling capacity is out of range at 1.035E-005 m3/s/W.
   **   ~~~   **  Environment=YEAR ROUND RUN PERIOD, at Simulation time=03/10 14:00 - 14:15
   **   ~~~   ** Expected range for VolumeFlowPerRatedTotalCapacity=[2.684E-005--6.713E-005]
   **   ~~~   ** Possible causes include inconsistent air flow rates in system components,
   **   ~~~   ** or variable air volume [VAV] system using incorrect coil type.
   ** Warning ** CalcDoe2DXCoil: Coil:Cooling:DX:SingleSpeed "LOBBY_84_Z553_COOLINGCOILDX" - Full load outlet air dry-bulb temperature < 2C. This indicates the possibility of coil frost/freeze. Outlet temperature = -44.09 C.
   **   ~~~   **  ...Occurrence info = YEAR ROUND RUN PERIOD, 03/10 14:05 - 14:10
   **   ~~~   ** ... Possible reasons for low outlet air dry-bulb temperatures are: This DX coil
   **   ~~~   **    1) may have a low inlet air dry-bulb temperature. Inlet air temperature = 24.173 C.
   **   ~~~   **    2) may have a low air flow rate per watt of cooling capacity. Check inputs.
   **   ~~~   **    3) is used as part of a HX assisted cooling coil which uses a high sensible effectiveness. Check inputs.
   ** Warning ** CalcDoe2DXCoil: Coil:Cooling:DX:SingleSpeed="LOBBY_28_Z185_COOLINGCOILDX" - Air volume flow rate per watt of rated total cooling capacity is out of range at 1.038E-005 m3/s/W.
   **   ~~~   **  Environment=YEAR ROUND RUN PERIOD, at Simulation time=03/10 14:10 - 14:15
   **   ~~~   ** Expected range for VolumeFlowPerRatedTotalCapacity=[2.684E-005--6.713E-005]
   **   ~~~   ** Possible causes include inconsistent air flow rates in system components,
   **   ~~~   ** or variable air volume [VAV] system using incorrect coil type.
   ** Warning ** CalcDoe2DXCoil: Coil:Cooling:DX:SingleSpeed "LOBBY_28_Z185_COOLINGCOILDX" - Full load outlet air dry-bulb temperature < 2C. This indicates the possibility of coil frost/freeze. Outlet temperature = -43.63 C.
   **   ~~~   **  ...Occurrence info = YEAR ROUND RUN PERIOD, 03/10 14:10 - 14:15
   **   ~~~   ** ... Possible reasons for low outlet air dry-bulb temperatures are: This DX coil
   **   ~~~   **    1) may have a low inlet air dry-bulb temperature. Inlet air temperature = 24.129 C.
   **   ~~~   **    2) may have a low air flow rate per watt of cooling capacity. Check inputs.
   **   ~~~   **    3) is used as part of a HX assisted cooling coil which uses a high sensible effectiveness. Check inputs.
   ** Warning ** CalcDoe2DXCoil: Coil:Cooling:DX:SingleSpeed="STORAGE_39_Z261_COOLINGCOILDX" - Air volume flow rate per watt of rated total cooling capacity is out of range at 1.033E-005 m3/s/W.
   **   ~~~   **  Environment=YEAR ROUND RUN PERIOD, at Simulation time=03/10 14:45 - 15:00
   **   ~~~   ** Expected range for VolumeFlowPerRatedTotalCapacity=[2.684E-005--6.713E-005]
   **   ~~~   ** Possible causes include inconsistent air flow rates in system components,
