Program Version,EnergyPlus, Version 24.2.0-94a887817b, YMD=2025.11.02 22:34,
   ** Warning ** Site:GroundTemperature:BuildingSurface: Some values fall outside the range of 15-25C.
   **   ~~~   ** These values may be inappropriate.  Please consult the Input Output Reference for more details.
   ** Warning ** Weather file location will be used rather than entered (IDF) Location object.
   **   ~~~   ** ..Location object=SITE
   **   ~~~   ** ..Weather File Location=San Francisco Intl Ap CA USA TMY3 WMO#=724940
   **   ~~~   ** ..due to location differences, Latitude difference=[0.17] degrees, Longitude difference=[5.20E-003] degrees.
   **   ~~~   ** ..Time Zone difference=[0.0] hour(s), Elevation difference=[80.00] percent, [8.00] meters.
   ** Warning ** ProcessScheduleInput: Schedule:Compact="BREAK_ROOM_LIGHTING" has missing day types in Through=12/31
   **   ~~~   ** Last "For" field=FOR: WEEKENDS
   **   ~~~   ** Missing day types="Holiday","SummerDesignDay","WinterDesignDay","CustomDay1","CustomDay2"
   **   ~~~   ** Missing day types will have 0.0 as Schedule Values
   ** Warning ** ProcessScheduleInput: Schedule:Compact="BREAK_ROOM_EQUIPMENT" has missing day types in Through=12/31
   **   ~~~   ** Last "For" field=FOR: WEEKENDS
   **   ~~~   ** Missing day types="Holiday","SummerDesignDay","WinterDesignDay","CustomDay1","CustomDay2"
   **   ~~~   ** Missing day types will have 0.0 as Schedule Values
   ** Warning ** ProcessScheduleInput: Schedule:Compact="CONFERENCE_OCCUPANCY" has missing day types in Through=12/31
   **   ~~~   ** Last "For" field=FOR: WEEKENDS
   **   ~~~   ** Missing day types="Holiday","SummerDesignDay","WinterDesignDay","CustomDay1","CustomDay2"
   **   ~~~   ** Missing day types will have 0.0 as Schedule Values
   ** Warning ** ProcessScheduleInput: Schedule:Compact="CONFERENCE_LIGHTING" has missing day types in Through=12/31
   **   ~~~   ** Last "For" field=FOR: WEEKENDS
   **   ~~~   ** Missing day types="Holiday","SummerDesignDay","WinterDesignDay","CustomDay1","CustomDay2"
   **   ~~~   ** Missing day types will have 0.0 as Schedule Values
   ** Warning ** ProcessScheduleInput: Schedule:Compact="CONFERENCE_EQUIPMENT" has missing day types in Through=12/31
   **   ~~~   ** Last "For" field=FOR: WEEKENDS
   **   ~~~   ** Missing day types="Holiday","SummerDesignDay","WinterDesignDay","CustomDay1","CustomDay2"
   **   ~~~   ** Missing day types will have 0.0 as Schedule Values
   ** Warning ** ProcessScheduleInput: Schedule:Compact="LOBBY_LIGHTING" has missing day types in Through=12/31
   **   ~~~   ** Last "For" field=FOR: WEEKENDS
   **   ~~~   ** Missing day types="Holiday","SummerDesignDay","WinterDesignDay","CustomDay1","CustomDay2"
   **   ~~~   ** Missing day types will have 0.0 as Schedule Values
   ** Warning ** ProcessScheduleInput: Schedule:Compact="LOBBY_EQUIPMENT" has missing day types in Through=12/31
   **   ~~~   ** Last "For" field=FOR: WEEKENDS
   **   ~~~   ** Missing day types="Holiday","SummerDesignDay","WinterDesignDay","CustomDay1","CustomDay2"
   **   ~~~   ** Missing day types will have 0.0 as Schedule Values
   ** Warning ** ProcessScheduleInput: Schedule:Compact="MECHANICAL_LIGHTING" has missing day types in Through=12/31
   **   ~~~   ** Last "For" field=FOR: WEEKENDS
   **   ~~~   ** Missing day types="Holiday","SummerDesignDay","WinterDesignDay","CustomDay1","CustomDay2"
   **   ~~~   ** Missing day types will have 0.0 as Schedule Values
   ** Warning ** ProcessScheduleInput: Schedule:Compact="MECHANICAL_EQUIPMENT" has missing day types in Through=12/31
   **   ~~~   ** Last "For" field=FOR: WEEKENDS
   **   ~~~   ** Missing day types="Holiday","SummerDesignDay","WinterDesignDay","CustomDay1","CustomDay2"
   **   ~~~   ** Missing day types will have 0.0 as Schedule Values
   ** Warning ** ProcessScheduleInput: Schedule:Compact="OFFICE_OPEN_OCCUPANCY" has missing day types in Through=12/31
   **   ~~~   ** Last "For" field=FOR: WEEKENDS
   **   ~~~   ** Missing day types="Holiday","SummerDesignDay","WinterDesignDay","CustomDay1","CustomDay2"
   **   ~~~   ** Missing day types will have 0.0 as Schedule Values
   ** Warning ** ProcessScheduleInput: Schedule:Compact="OFFICE_OPEN_LIGHTING" has missing day types in Through=12/31
   **   ~~~   ** Last "For" field=FOR: WEEKENDS
   **   ~~~   ** Missing day types="Holiday","SummerDesignDay","WinterDesignDay","CustomDay1","CustomDay2"
   **   ~~~   ** Missing day types will have 0.0 as Schedule Values
   ** Warning ** ProcessScheduleInput: Schedule:Compact="OFFICE_OPEN_EQUIPMENT" has missing day types in Through=12/31
   **   ~~~   ** Last "For" field=FOR: WEEKENDS
   **   ~~~   ** Missing day types="Holiday","SummerDesignDay","WinterDesignDay","CustomDay1","CustomDay2"
   **   ~~~   ** Missing day types will have 0.0 as Schedule Values
   ** Warning ** ProcessScheduleInput: Schedule:Compact="STORAGE_LIGHTING" has missing day types in Through=12/31
   **   ~~~   ** Last "For" field=FOR: WEEKENDS
   **   ~~~   ** Missing day types="Holiday","SummerDesignDay","WinterDesignDay","CustomDay1","CustomDay2"
   **   ~~~   ** Missing day types will have 0.0 as Schedule Values
   ** Warning ** ProcessScheduleInput: Schedule:Compact="STORAGE_EQUIPMENT" has missing day types in Through=12/31
   **   ~~~   ** Last "For" field=FOR: WEEKENDS
   **   ~~~   ** Missing day types="Holiday","SummerDesignDay","WinterDesignDay","CustomDay1","CustomDay2"
   **   ~~~   ** Missing day types will have 0.0 as Schedule Values
   ** Warning ** GetVertices: Floor is upside down! Tilt angle=[0.0], should be near 180, Surface="OFFICE_OPEN_0_0_0_FLOOR", in Zone="OFFICE_OPEN_0_0_0".
   **   ~~~   ** Automatic fix is attempted.
   ** Warning ** GetVertices: Roof/Ceiling is upside down! Tilt angle=[180.0], should be near 0, Surface="OFFICE_OPEN_0_0_0_CEILING", in Zone="OFFICE_OPEN_0_0_0".
   **   ~~~   ** Automatic fix is attempted.
   ** Warning ** GetVertices: Floor is upside down! Tilt angle=[0.0], should be near 180, Surface="OFFICE_PRIVATE_0_0_1_FLOOR", in Zone="OFFICE_PRIVATE_0_0_1".
   **   ~~~   ** Automatic fix is attempted.
   ** Warning ** GetVertices: Roof/Ceiling is upside down! Tilt angle=[180.0], should be near 0, Surface="OFFICE_PRIVATE_0_0_1_CEILING", in Zone="OFFICE_PRIVATE_0_0_1".
   **   ~~~   ** Automatic fix is attempted.
   ** Warning ** GetVertices: Floor is upside down! Tilt angle=[0.0], should be near 180, Surface="STORAGE_0_0_2_FLOOR", in Zone="STORAGE_0_0_2".
   **   ~~~   ** Automatic fix is attempted.
   ** Warning ** GetVertices: Roof/Ceiling is upside down! Tilt angle=[180.0], should be near 0, Surface="STORAGE_0_0_2_CEILING", in Zone="STORAGE_0_0_2".
   **   ~~~   ** Automatic fix is attempted.
   ** Warning ** GetVertices: Floor is upside down! Tilt angle=[0.0], should be near 180, Surface="OFFICE_OPEN_0_1_0_FLOOR", in Zone="OFFICE_OPEN_0_1_0".
   **   ~~~   ** Automatic fix is attempted.
   ** Warning ** GetVertices: Roof/Ceiling is upside down! Tilt angle=[180.0], should be near 0, Surface="OFFICE_OPEN_0_1_0_CEILING", in Zone="OFFICE_OPEN_0_1_0".
   **   ~~~   ** Automatic fix is attempted.
   ** Warning ** GetVertices: Floor is upside down! Tilt angle=[0.0], should be near 180, Surface="OFFICE_PRIVATE_0_1_1_FLOOR", in Zone="OFFICE_PRIVATE_0_1_1".
   **   ~~~   ** Automatic fix is attempted.
   ** Warning ** GetVertices: Roof/Ceiling is upside down! Tilt angle=[180.0], should be near 0, Surface="OFFICE_PRIVATE_0_1_1_CEILING", in Zone="OFFICE_PRIVATE_0_1_1".
   **   ~~~   ** Automatic fix is attempted.
   ** Warning ** GetVertices: Floor is upside down! Tilt angle=[0.0], should be near 180, Surface="STORAGE_0_1_2_FLOOR", in Zone="STORAGE_0_1_2".
   **   ~~~   ** Automatic fix is attempted.
   ** Warning ** GetVertices: Roof/Ceiling is upside down! Tilt angle=[180.0], should be near 0, Surface="STORAGE_0_1_2_CEILING", in Zone="STORAGE_0_1_2".
   **   ~~~   ** Automatic fix is attempted.
   ** Warning ** GetVertices: Floor is upside down! Tilt angle=[0.0], should be near 180, Surface="OFFICE_OPEN_0_2_0_FLOOR", in Zone="OFFICE_OPEN_0_2_0".
   **   ~~~   ** Automatic fix is attempted.
   ** Warning ** GetVertices: Roof/Ceiling is upside down! Tilt angle=[180.0], should be near 0, Surface="OFFICE_OPEN_0_2_0_CEILING", in Zone="OFFICE_OPEN_0_2_0".
   **   ~~~   ** Automatic fix is attempted.
   ** Warning ** GetVertices: Floor is upside down! Tilt angle=[0.0], should be near 180, Surface="OFFICE_PRIVATE_0_2_1_FLOOR", in Zone="OFFICE_PRIVATE_0_2_1".
   **   ~~~   ** Automatic fix is attempted.
   ** Warning ** GetVertices: Roof/Ceiling is upside down! Tilt angle=[180.0], should be near 0, Surface="OFFICE_PRIVATE_0_2_1_CEILING", in Zone="OFFICE_PRIVATE_0_2_1".
   **   ~~~   ** Automatic fix is attempted.
   ** Warning ** GetVertices: Floor is upside down! Tilt angle=[0.0], should be near 180, Surface="STORAGE_0_2_2_FLOOR", in Zone="STORAGE_0_2_2".
   **   ~~~   ** Automatic fix is attempted.
   ** Warning ** GetVertices: Roof/Ceiling is upside down! Tilt angle=[180.0], should be near 0, Surface="STORAGE_0_2_2_CEILING", in Zone="STORAGE_0_2_2".
   **   ~~~   ** Automatic fix is attempted.
   ** Warning ** GetVertices: Floor is upside down! Tilt angle=[0.0], should be near 180, Surface="OFFICE_OPEN_1_0_0_FLOOR", in Zone="OFFICE_OPEN_1_0_0".
   **   ~~~   ** Automatic fix is attempted.
   ** Warning ** GetVertices: Roof/Ceiling is upside down! Tilt angle=[180.0], should be near 0, Surface="OFFICE_OPEN_1_0_0_CEILING", in Zone="OFFICE_OPEN_1_0_0".
   **   ~~~   ** Automatic fix is attempted.
   ** Warning ** GetVertices: Floor is upside down! Tilt angle=[0.0], should be near 180, Surface="OFFICE_PRIVATE_1_0_1_FLOOR", in Zone="OFFICE_PRIVATE_1_0_1".
   **   ~~~   ** Automatic fix is attempted.
   ** Warning ** GetVertices: Roof/Ceiling is upside down! Tilt angle=[180.0], should be near 0, Surface="OFFICE_PRIVATE_1_0_1_CEILING", in Zone="OFFICE_PRIVATE_1_0_1".
   **   ~~~   ** Automatic fix is attempted.
   ** Warning ** GetVertices: Floor is upside down! Tilt angle=[0.0], should be near 180, Surface="STORAGE_1_0_2_FLOOR", in Zone="STORAGE_1_0_2".
   **   ~~~   ** Automatic fix is attempted.
   ** Warning ** GetVertices: Roof/Ceiling is upside down! Tilt angle=[180.0], should be near 0, Surface="STORAGE_1_0_2_CEILING", in Zone="STORAGE_1_0_2".
   **   ~~~   ** Automatic fix is attempted.
   ** Warning ** GetVertices: Floor is upside down! Tilt angle=[0.0], should be near 180, Surface="OFFICE_OPEN_1_1_0_FLOOR", in Zone="OFFICE_OPEN_1_1_0".
   **   ~~~   ** Automatic fix is attempted.
   ** Warning ** GetVertices: Roof/Ceiling is upside down! Tilt angle=[180.0], should be near 0, Surface="OFFICE_OPEN_1_1_0_CEILING", in Zone="OFFICE_OPEN_1_1_0".
   **   ~~~   ** Automatic fix is attempted.
   ** Warning ** GetVertices: Floor is upside down! Tilt angle=[0.0], should be near 180, Surface="OFFICE_PRIVATE_1_1_1_FLOOR", in Zone="OFFICE_PRIVATE_1_1_1".
   **   ~~~   ** Automatic fix is attempted.
   ** Warning ** GetVertices: Roof/Ceiling is upside down! Tilt angle=[180.0], should be near 0, Surface="OFFICE_PRIVATE_1_1_1_CEILING", in Zone="OFFICE_PRIVATE_1_1_1".
   **   ~~~   ** Automatic fix is attempted.
   ** Warning ** GetVertices: Floor is upside down! Tilt angle=[0.0], should be near 180, Surface="STORAGE_1_1_2_FLOOR", in Zone="STORAGE_1_1_2".
   **   ~~~   ** Automatic fix is attempted.
   ** Warning ** GetVertices: Roof/Ceiling is upside down! Tilt angle=[180.0], should be near 0, Surface="STORAGE_1_1_2_CEILING", in Zone="STORAGE_1_1_2".
   **   ~~~   ** Automatic fix is attempted.
   ** Warning ** GetVertices: Floor is upside down! Tilt angle=[0.0], should be near 180, Surface="OFFICE_OPEN_1_2_0_FLOOR", in Zone="OFFICE_OPEN_1_2_0".
   **   ~~~   ** Automatic fix is attempted.
   ** Warning ** GetVertices: Roof/Ceiling is upside down! Tilt angle=[180.0], should be near 0, Surface="OFFICE_OPEN_1_2_0_CEILING", in Zone="OFFICE_OPEN_1_2_0".
   **   ~~~   ** Automatic fix is attempted.
   ** Warning ** GetVertices: Floor is upside down! Tilt angle=[0.0], should be near 180, Surface="OFFICE_PRIVATE_1_2_1_FLOOR", in Zone="OFFICE_PRIVATE_1_2_1".
   **   ~~~   ** Automatic fix is attempted.
   ** Warning ** GetVertices: Roof/Ceiling is upside down! Tilt angle=[180.0], should be near 0, Surface="OFFICE_PRIVATE_1_2_1_CEILING", in Zone="OFFICE_PRIVATE_1_2_1".
   **   ~~~   ** Automatic fix is attempted.
   ** Warning ** GetVertices: Floor is upside down! Tilt angle=[0.0], should be near 180, Surface="STORAGE_1_2_2_FLOOR", in Zone="STORAGE_1_2_2".
   **   ~~~   ** Automatic fix is attempted.
   ** Warning ** GetVertices: Roof/Ceiling is upside down! Tilt angle=[180.0], should be near 0, Surface="STORAGE_1_2_2_CEILING", in Zone="STORAGE_1_2_2".
   **   ~~~   ** Automatic fix is attempted.
   ** Warning ** GetVertices: Floor is upside down! Tilt angle=[0.0], should be near 180, Surface="OFFICE_OPEN_2_0_0_FLOOR", in Zone="OFFICE_OPEN_2_0_0".
   **   ~~~   ** Automatic fix is attempted.
   ** Warning ** GetVertices: Roof/Ceiling is upside down! Tilt angle=[180.0], should be near 0, Surface="OFFICE_OPEN_2_0_0_CEILING", in Zone="OFFICE_OPEN_2_0_0".
   **   ~~~   ** Automatic fix is attempted.
   ** Warning ** GetVertices: Floor is upside down! Tilt angle=[0.0], should be near 180, Surface="OFFICE_PRIVATE_2_0_1_FLOOR", in Zone="OFFICE_PRIVATE_2_0_1".
   **   ~~~   ** Automatic fix is attempted.
   ** Warning ** GetVertices: Roof/Ceiling is upside down! Tilt angle=[180.0], should be near 0, Surface="OFFICE_PRIVATE_2_0_1_CEILING", in Zone="OFFICE_PRIVATE_2_0_1".
   **   ~~~   ** Automatic fix is attempted.
   ** Warning ** GetVertices: Floor is upside down! Tilt angle=[0.0], should be near 180, Surface="STORAGE_2_0_2_FLOOR", in Zone="STORAGE_2_0_2".
   **   ~~~   ** Automatic fix is attempted.
   ** Warning ** GetVertices: Roof/Ceiling is upside down! Tilt angle=[180.0], should be near 0, Surface="STORAGE_2_0_2_CEILING", in Zone="STORAGE_2_0_2".
   **   ~~~   ** Automatic fix is attempted.
   ** Warning ** GetVertices: Floor is upside down! Tilt angle=[0.0], should be near 180, Surface="OFFICE_OPEN_2_1_0_FLOOR", in Zone="OFFICE_OPEN_2_1_0".
   **   ~~~   ** Automatic fix is attempted.
   ** Warning ** GetVertices: Roof/Ceiling is upside down! Tilt angle=[180.0], should be near 0, Surface="OFFICE_OPEN_2_1_0_CEILING", in Zone="OFFICE_OPEN_2_1_0".
   **   ~~~   ** Automatic fix is attempted.
   ** Warning ** GetVertices: Floor is upside down! Tilt angle=[0.0], should be near 180, Surface="OFFICE_PRIVATE_2_1_1_FLOOR", in Zone="OFFICE_PRIVATE_2_1_1".
   **   ~~~   ** Automatic fix is attempted.
   ** Warning ** GetVertices: Roof/Ceiling is upside down! Tilt angle=[180.0], should be near 0, Surface="OFFICE_PRIVATE_2_1_1_CEILING", in Zone="OFFICE_PRIVATE_2_1_1".
   **   ~~~   ** Automatic fix is attempted.
   ** Warning ** GetVertices: Floor is upside down! Tilt angle=[0.0], should be near 180, Surface="STORAGE_2_1_2_FLOOR", in Zone="STORAGE_2_1_2".
   **   ~~~   ** Automatic fix is attempted.
   ** Warning ** GetVertices: Roof/Ceiling is upside down! Tilt angle=[180.0], should be near 0, Surface="STORAGE_2_1_2_CEILING", in Zone="STORAGE_2_1_2".
   **   ~~~   ** Automatic fix is attempted.
   ** Warning ** GetVertices: Floor is upside down! Tilt angle=[0.0], should be near 180, Surface="OFFICE_OPEN_2_2_0_FLOOR", in Zone="OFFICE_OPEN_2_2_0".
   **   ~~~   ** Automatic fix is attempted.
   ** Warning ** GetVertices: Roof/Ceiling is upside down! Tilt angle=[180.0], should be near 0, Surface="OFFICE_OPEN_2_2_0_CEILING", in Zone="OFFICE_OPEN_2_2_0".
   **   ~~~   ** Automatic fix is attempted.
   ** Warning ** GetVertices: Floor is upside down! Tilt angle=[0.0], should be near 180, Surface="OFFICE_PRIVATE_2_2_1_FLOOR", in Zone="OFFICE_PRIVATE_2_2_1".
   **   ~~~   ** Automatic fix is attempted.
   ** Warning ** GetVertices: Roof/Ceiling is upside down! Tilt angle=[180.0], should be near 0, Surface="OFFICE_PRIVATE_2_2_1_CEILING", in Zone="OFFICE_PRIVATE_2_2_1".
   **   ~~~   ** Automatic fix is attempted.
   ** Warning ** GetVertices: Floor is upside down! Tilt angle=[0.0], should be near 180, Surface="STORAGE_2_2_2_FLOOR", in Zone="STORAGE_2_2_2".
   **   ~~~   ** Automatic fix is attempted.
   ** Warning ** GetVertices: Roof/Ceiling is upside down! Tilt angle=[180.0], should be near 0, Surface="STORAGE_2_2_2_CEILING", in Zone="STORAGE_2_2_2".
   **   ~~~   ** Automatic fix is attempted.
   ** Warning ** GetVertices: Floor is upside down! Tilt angle=[0.0], should be near 180, Surface="OFFICE_OPEN_3_0_0_FLOOR", in Zone="OFFICE_OPEN_3_0_0".
   **   ~~~   ** Automatic fix is attempted.
   ** Warning ** GetVertices: Roof/Ceiling is upside down! Tilt angle=[180.0], should be near 0, Surface="OFFICE_OPEN_3_0_0_CEILING", in Zone="OFFICE_OPEN_3_0_0".
   **   ~~~   ** Automatic fix is attempted.
   ** Warning ** GetVertices: Floor is upside down! Tilt angle=[0.0], should be near 180, Surface="OFFICE_PRIVATE_3_0_1_FLOOR", in Zone="OFFICE_PRIVATE_3_0_1".
   **   ~~~   ** Automatic fix is attempted.
   ** Warning ** GetVertices: Roof/Ceiling is upside down! Tilt angle=[180.0], should be near 0, Surface="OFFICE_PRIVATE_3_0_1_CEILING", in Zone="OFFICE_PRIVATE_3_0_1".
   **   ~~~   ** Automatic fix is attempted.
   ** Warning ** GetVertices: Floor is upside down! Tilt angle=[0.0], should be near 180, Surface="STORAGE_3_0_2_FLOOR", in Zone="STORAGE_3_0_2".
   **   ~~~   ** Automatic fix is attempted.
   ** Warning ** GetVertices: Roof/Ceiling is upside down! Tilt angle=[180.0], should be near 0, Surface="STORAGE_3_0_2_CEILING", in Zone="STORAGE_3_0_2".
   **   ~~~   ** Automatic fix is attempted.
   ** Warning ** GetVertices: Floor is upside down! Tilt angle=[0.0], should be near 180, Surface="OFFICE_OPEN_3_1_0_FLOOR", in Zone="OFFICE_OPEN_3_1_0".
   **   ~~~   ** Automatic fix is attempted.
   ** Warning ** GetVertices: Roof/Ceiling is upside down! Tilt angle=[180.0], should be near 0, Surface="OFFICE_OPEN_3_1_0_CEILING", in Zone="OFFICE_OPEN_3_1_0".
   **   ~~~   ** Automatic fix is attempted.
   ** Warning ** GetVertices: Floor is upside down! Tilt angle=[0.0], should be near 180, Surface="OFFICE_PRIVATE_3_1_1_FLOOR", in Zone="OFFICE_PRIVATE_3_1_1".
   **   ~~~   ** Automatic fix is attempted.
   ** Warning ** GetVertices: Roof/Ceiling is upside down! Tilt angle=[180.0], should be near 0, Surface="OFFICE_PRIVATE_3_1_1_CEILING", in Zone="OFFICE_PRIVATE_3_1_1".
   **   ~~~   ** Automatic fix is attempted.
   ** Warning ** GetVertices: Floor is upside down! Tilt angle=[0.0], should be near 180, Surface="STORAGE_3_1_2_FLOOR", in Zone="STORAGE_3_1_2".
   **   ~~~   ** Automatic fix is attempted.
   ** Warning ** GetVertices: Roof/Ceiling is upside down! Tilt angle=[180.0], should be near 0, Surface="STORAGE_3_1_2_CEILING", in Zone="STORAGE_3_1_2".
   **   ~~~   ** Automatic fix is attempted.
   ** Warning ** GetVertices: Floor is upside down! Tilt angle=[0.0], should be near 180, Surface="OFFICE_OPEN_3_2_0_FLOOR", in Zone="OFFICE_OPEN_3_2_0".
   **   ~~~   ** Automatic fix is attempted.
   ** Warning ** GetVertices: Roof/Ceiling is upside down! Tilt angle=[180.0], should be near 0, Surface="OFFICE_OPEN_3_2_0_CEILING", in Zone="OFFICE_OPEN_3_2_0".
   **   ~~~   ** Automatic fix is attempted.
   ** Warning ** GetVertices: Floor is upside down! Tilt angle=[0.0], should be near 180, Surface="OFFICE_PRIVATE_3_2_1_FLOOR", in Zone="OFFICE_PRIVATE_3_2_1".
   **   ~~~   ** Automatic fix is attempted.
   ** Warning ** GetVertices: Roof/Ceiling is upside down! Tilt angle=[180.0], should be near 0, Surface="OFFICE_PRIVATE_3_2_1_CEILING", in Zone="OFFICE_PRIVATE_3_2_1".
   **   ~~~   ** Automatic fix is attempted.
   ** Warning ** GetVertices: Floor is upside down! Tilt angle=[0.0], should be near 180, Surface="STORAGE_3_2_2_FLOOR", in Zone="STORAGE_3_2_2".
   **   ~~~   ** Automatic fix is attempted.
   ** Warning ** GetVertices: Roof/Ceiling is upside down! Tilt angle=[180.0], should be near 0, Surface="STORAGE_3_2_2_CEILING", in Zone="STORAGE_3_2_2".
   **   ~~~   ** Automatic fix is attempted.
   ** Warning ** GetVertices: Floor is upside down! Tilt angle=[0.0], should be near 180, Surface="OFFICE_OPEN_4_0_0_FLOOR", in Zone="OFFICE_OPEN_4_0_0".
   **   ~~~   ** Automatic fix is attempted.
   ** Warning ** GetVertices: Roof/Ceiling is upside down! Tilt angle=[180.0], should be near 0, Surface="OFFICE_OPEN_4_0_0_CEILING", in Zone="OFFICE_OPEN_4_0_0".
   **   ~~~   ** Automatic fix is attempted.
   ** Warning ** GetVertices: Floor is upside down! Tilt angle=[0.0], should be near 180, Surface="OFFICE_PRIVATE_4_0_1_FLOOR", in Zone="OFFICE_PRIVATE_4_0_1".
   **   ~~~   ** Automatic fix is attempted.
   ** Warning ** GetVertices: Roof/Ceiling is upside down! Tilt angle=[180.0], should be near 0, Surface="OFFICE_PRIVATE_4_0_1_CEILING", in Zone="OFFICE_PRIVATE_4_0_1".
   **   ~~~   ** Automatic fix is attempted.
   ** Warning ** GetVertices: Floor is upside down! Tilt angle=[0.0], should be near 180, Surface="STORAGE_4_0_2_FLOOR", in Zone="STORAGE_4_0_2".
   **   ~~~   ** Automatic fix is attempted.
   ** Warning ** GetVertices: Roof/Ceiling is upside down! Tilt angle=[180.0], should be near 0, Surface="STORAGE_4_0_2_CEILING", in Zone="STORAGE_4_0_2".
   **   ~~~   ** Automatic fix is attempted.
   ** Warning ** GetVertices: Floor is upside down! Tilt angle=[0.0], should be near 180, Surface="OFFICE_OPEN_4_1_0_FLOOR", in Zone="OFFICE_OPEN_4_1_0".
   **   ~~~   ** Automatic fix is attempted.
   ** Warning ** GetVertices: Roof/Ceiling is upside down! Tilt angle=[180.0], should be near 0, Surface="OFFICE_OPEN_4_1_0_CEILING", in Zone="OFFICE_OPEN_4_1_0".
   **   ~~~   ** Automatic fix is attempted.
   ** Warning ** GetVertices: Floor is upside down! Tilt angle=[0.0], should be near 180, Surface="OFFICE_PRIVATE_4_1_1_FLOOR", in Zone="OFFICE_PRIVATE_4_1_1".
   **   ~~~   ** Automatic fix is attempted.
   ** Warning ** GetVertices: Roof/Ceiling is upside down! Tilt angle=[180.0], should be near 0, Surface="OFFICE_PRIVATE_4_1_1_CEILING", in Zone="OFFICE_PRIVATE_4_1_1".
   **   ~~~   ** Automatic fix is attempted.
   ** Warning ** GetVertices: Floor is upside down! Tilt angle=[0.0], should be near 180, Surface="STORAGE_4_1_2_FLOOR", in Zone="STORAGE_4_1_2".
   **   ~~~   ** Automatic fix is attempted.
   ** Warning ** GetVertices: Roof/Ceiling is upside down! Tilt angle=[180.0], should be near 0, Surface="STORAGE_4_1_2_CEILING", in Zone="STORAGE_4_1_2".
   **   ~~~   ** Automatic fix is attempted.
   ** Warning ** GetVertices: Floor is upside down! Tilt angle=[0.0], should be near 180, Surface="OFFICE_OPEN_4_2_0_FLOOR", in Zone="OFFICE_OPEN_4_2_0".
   **   ~~~   ** Automatic fix is attempted.
   ** Warning ** GetVertices: Roof/Ceiling is upside down! Tilt angle=[180.0], should be near 0, Surface="OFFICE_OPEN_4_2_0_CEILING", in Zone="OFFICE_OPEN_4_2_0".
   **   ~~~   ** Automatic fix is attempted.
   ** Warning ** GetVertices: Floor is upside down! Tilt angle=[0.0], should be near 180, Surface="OFFICE_PRIVATE_4_2_1_FLOOR", in Zone="OFFICE_PRIVATE_4_2_1".
   **   ~~~   ** Automatic fix is attempted.
   ** Warning ** GetVertices: Roof/Ceiling is upside down! Tilt angle=[180.0], should be near 0, Surface="OFFICE_PRIVATE_4_2_1_CEILING", in Zone="OFFICE_PRIVATE_4_2_1".
   **   ~~~   ** Automatic fix is attempted.
   ** Warning ** GetVertices: Floor is upside down! Tilt angle=[0.0], should be near 180, Surface="STORAGE_4_2_2_FLOOR", in Zone="STORAGE_4_2_2".
   **   ~~~   ** Automatic fix is attempted.
   ** Warning ** GetVertices: Roof/Ceiling is upside down! Tilt angle=[180.0], should be near 0, Surface="STORAGE_4_2_2_CEILING", in Zone="STORAGE_4_2_2".
   **   ~~~   ** Automatic fix is attempted.
   ** Warning ** GetVertices: Floor is upside down! Tilt angle=[0.0], should be near 180, Surface="OFFICE_OPEN_5_0_0_FLOOR", in Zone="OFFICE_OPEN_5_0_0".
   **   ~~~   ** Automatic fix is attempted.
   ** Warning ** GetVertices: Roof/Ceiling is upside down! Tilt angle=[180.0], should be near 0, Surface="OFFICE_OPEN_5_0_0_CEILING", in Zone="OFFICE_OPEN_5_0_0".
   **   ~~~   ** Automatic fix is attempted.
   ** Warning ** GetVertices: Floor is upside down! Tilt angle=[0.0], should be near 180, Surface="OFFICE_PRIVATE_5_0_1_FLOOR", in Zone="OFFICE_PRIVATE_5_0_1".
   **   ~~~   ** Automatic fix is attempted.
   ** Warning ** GetVertices: Roof/Ceiling is upside down! Tilt angle=[180.0], should be near 0, Surface="OFFICE_PRIVATE_5_0_1_CEILING", in Zone="OFFICE_PRIVATE_5_0_1".
   **   ~~~   ** Automatic fix is attempted.
   ** Warning ** GetVertices: Floor is upside down! Tilt angle=[0.0], should be near 180, Surface="STORAGE_5_0_2_FLOOR", in Zone="STORAGE_5_0_2".
   **   ~~~   ** Automatic fix is attempted.
   ** Warning ** GetVertices: Roof/Ceiling is upside down! Tilt angle=[180.0], should be near 0, Surface="STORAGE_5_0_2_CEILING", in Zone="STORAGE_5_0_2".
   **   ~~~   ** Automatic fix is attempted.
   ** Warning ** GetVertices: Floor is upside down! Tilt angle=[0.0], should be near 180, Surface="OFFICE_OPEN_5_1_0_FLOOR", in Zone="OFFICE_OPEN_5_1_0".
   **   ~~~   ** Automatic fix is attempted.
   ** Warning ** GetVertices: Roof/Ceiling is upside down! Tilt angle=[180.0], should be near 0, Surface="OFFICE_OPEN_5_1_0_CEILING", in Zone="OFFICE_OPEN_5_1_0".
   **   ~~~   ** Automatic fix is attempted.
   ** Warning ** GetVertices: Floor is upside down! Tilt angle=[0.0], should be near 180, Surface="OFFICE_PRIVATE_5_1_1_FLOOR", in Zone="OFFICE_PRIVATE_5_1_1".
   **   ~~~   ** Automatic fix is attempted.
   ** Warning ** GetVertices: Roof/Ceiling is upside down! Tilt angle=[180.0], should be near 0, Surface="OFFICE_PRIVATE_5_1_1_CEILING", in Zone="OFFICE_PRIVATE_5_1_1".
   **   ~~~   ** Automatic fix is attempted.
   ** Warning ** GetVertices: Floor is upside down! Tilt angle=[0.0], should be near 180, Surface="STORAGE_5_1_2_FLOOR", in Zone="STORAGE_5_1_2".
   **   ~~~   ** Automatic fix is attempted.
   ** Warning ** GetVertices: Roof/Ceiling is upside down! Tilt angle=[180.0], should be near 0, Surface="STORAGE_5_1_2_CEILING", in Zone="STORAGE_5_1_2".
   **   ~~~   ** Automatic fix is attempted.
   ** Warning ** GetVertices: Floor is upside down! Tilt angle=[0.0], should be near 180, Surface="OFFICE_OPEN_5_2_0_FLOOR", in Zone="OFFICE_OPEN_5_2_0".
   **   ~~~   ** Automatic fix is attempted.
   ** Warning ** GetVertices: Roof/Ceiling is upside down! Tilt angle=[180.0], should be near 0, Surface="OFFICE_OPEN_5_2_0_CEILING", in Zone="OFFICE_OPEN_5_2_0".
   **   ~~~   ** Automatic fix is attempted.
   ** Warning ** GetVertices: Floor is upside down! Tilt angle=[0.0], should be near 180, Surface="OFFICE_PRIVATE_5_2_1_FLOOR", in Zone="OFFICE_PRIVATE_5_2_1".
   **   ~~~   ** Automatic fix is attempted.
   ** Warning ** GetVertices: Roof/Ceiling is upside down! Tilt angle=[180.0], should be near 0, Surface="OFFICE_PRIVATE_5_2_1_CEILING", in Zone="OFFICE_PRIVATE_5_2_1".
   **   ~~~   ** Automatic fix is attempted.
   ** Warning ** GetVertices: Floor is upside down! Tilt angle=[0.0], should be near 180, Surface="STORAGE_5_2_2_FLOOR", in Zone="STORAGE_5_2_2".
   **   ~~~   ** Automatic fix is attempted.
   ** Warning ** GetVertices: Roof/Ceiling is upside down! Tilt angle=[180.0], should be near 0, Surface="STORAGE_5_2_2_CEILING", in Zone="STORAGE_5_2_2".
   **   ~~~   ** Automatic fix is attempted.
   ** Warning ** GetVertices: Floor is upside down! Tilt angle=[0.0], should be near 180, Surface="OFFICE_OPEN_6_0_0_FLOOR", in Zone="OFFICE_OPEN_6_0_0".
   **   ~~~   ** Automatic fix is attempted.
   ** Warning ** GetVertices: Roof/Ceiling is upside down! Tilt angle=[180.0], should be near 0, Surface="OFFICE_OPEN_6_0_0_CEILING", in Zone="OFFICE_OPEN_6_0_0".
   **   ~~~   ** Automatic fix is attempted.
   ** Warning ** GetVertices: Floor is upside down! Tilt angle=[0.0], should be near 180, Surface="OFFICE_PRIVATE_6_0_1_FLOOR", in Zone="OFFICE_PRIVATE_6_0_1".
   **   ~~~   ** Automatic fix is attempted.
   ** Warning ** GetVertices: Roof/Ceiling is upside down! Tilt angle=[180.0], should be near 0, Surface="OFFICE_PRIVATE_6_0_1_CEILING", in Zone="OFFICE_PRIVATE_6_0_1".
   **   ~~~   ** Automatic fix is attempted.
   ** Warning ** GetVertices: Floor is upside down! Tilt angle=[0.0], should be near 180, Surface="STORAGE_6_0_2_FLOOR", in Zone="STORAGE_6_0_2".
   **   ~~~   ** Automatic fix is attempted.
   ** Warning ** GetVertices: Roof/Ceiling is upside down! Tilt angle=[180.0], should be near 0, Surface="STORAGE_6_0_2_CEILING", in Zone="STORAGE_6_0_2".
   **   ~~~   ** Automatic fix is attempted.
   ** Warning ** GetVertices: Floor is upside down! Tilt angle=[0.0], should be near 180, Surface="OFFICE_OPEN_6_1_0_FLOOR", in Zone="OFFICE_OPEN_6_1_0".
   **   ~~~   ** Automatic fix is attempted.
   ** Warning ** GetVertices: Roof/Ceiling is upside down! Tilt angle=[180.0], should be near 0, Surface="OFFICE_OPEN_6_1_0_CEILING", in Zone="OFFICE_OPEN_6_1_0".
   **   ~~~   ** Automatic fix is attempted.
   ** Warning ** GetVertices: Floor is upside down! Tilt angle=[0.0], should be near 180, Surface="OFFICE_PRIVATE_6_1_1_FLOOR", in Zone="OFFICE_PRIVATE_6_1_1".
   **   ~~~   ** Automatic fix is attempted.
   ** Warning ** GetVertices: Roof/Ceiling is upside down! Tilt angle=[180.0], should be near 0, Surface="OFFICE_PRIVATE_6_1_1_CEILING", in Zone="OFFICE_PRIVATE_6_1_1".
   **   ~~~   ** Automatic fix is attempted.
   ** Warning ** GetVertices: Floor is upside down! Tilt angle=[0.0], should be near 180, Surface="STORAGE_6_1_2_FLOOR", in Zone="STORAGE_6_1_2".
   **   ~~~   ** Automatic fix is attempted.
   ** Warning ** GetVertices: Roof/Ceiling is upside down! Tilt angle=[180.0], should be near 0, Surface="STORAGE_6_1_2_CEILING", in Zone="STORAGE_6_1_2".
   **   ~~~   ** Automatic fix is attempted.
   ** Warning ** GetVertices: Floor is upside down! Tilt angle=[0.0], should be near 180, Surface="OFFICE_OPEN_6_2_0_FLOOR", in Zone="OFFICE_OPEN_6_2_0".
   **   ~~~   ** Automatic fix is attempted.
   ** Warning ** GetVertices: Roof/Ceiling is upside down! Tilt angle=[180.0], should be near 0, Surface="OFFICE_OPEN_6_2_0_CEILING", in Zone="OFFICE_OPEN_6_2_0".
   **   ~~~   ** Automatic fix is attempted.
   ** Warning ** GetVertices: Floor is upside down! Tilt angle=[0.0], should be near 180, Surface="OFFICE_PRIVATE_6_2_1_FLOOR", in Zone="OFFICE_PRIVATE_6_2_1".
   **   ~~~   ** Automatic fix is attempted.
   ** Warning ** GetVertices: Roof/Ceiling is upside down! Tilt angle=[180.0], should be near 0, Surface="OFFICE_PRIVATE_6_2_1_CEILING", in Zone="OFFICE_PRIVATE_6_2_1".
   **   ~~~   ** Automatic fix is attempted.
   ** Warning ** GetVertices: Floor is upside down! Tilt angle=[0.0], should be near 180, Surface="STORAGE_6_2_2_FLOOR", in Zone="STORAGE_6_2_2".
   **   ~~~   ** Automatic fix is attempted.
   ** Warning ** GetVertices: Roof/Ceiling is upside down! Tilt angle=[180.0], should be near 0, Surface="STORAGE_6_2_2_CEILING", in Zone="STORAGE_6_2_2".
   **   ~~~   ** Automatic fix is attempted.
   ** Warning ** GetVertices: Floor is upside down! Tilt angle=[0.0], should be near 180, Surface="OFFICE_OPEN_7_0_0_FLOOR", in Zone="OFFICE_OPEN_7_0_0".
   **   ~~~   ** Automatic fix is attempted.
   ** Warning ** GetVertices: Roof/Ceiling is upside down! Tilt angle=[180.0], should be near 0, Surface="OFFICE_OPEN_7_0_0_CEILING", in Zone="OFFICE_OPEN_7_0_0".
   **   ~~~   ** Automatic fix is attempted.
   ** Warning ** GetVertices: Floor is upside down! Tilt angle=[0.0], should be near 180, Surface="OFFICE_PRIVATE_7_0_1_FLOOR", in Zone="OFFICE_PRIVATE_7_0_1".
   **   ~~~   ** Automatic fix is attempted.
   ** Warning ** GetVertices: Roof/Ceiling is upside down! Tilt angle=[180.0], should be near 0, Surface="OFFICE_PRIVATE_7_0_1_CEILING", in Zone="OFFICE_PRIVATE_7_0_1".
   **   ~~~   ** Automatic fix is attempted.
   ** Warning ** GetVertices: Floor is upside down! Tilt angle=[0.0], should be near 180, Surface="STORAGE_7_0_2_FLOOR", in Zone="STORAGE_7_0_2".
   **   ~~~   ** Automatic fix is attempted.
   ** Warning ** GetVertices: Roof/Ceiling is upside down! Tilt angle=[180.0], should be near 0, Surface="STORAGE_7_0_2_CEILING", in Zone="STORAGE_7_0_2".
   **   ~~~   ** Automatic fix is attempted.
   ** Warning ** GetVertices: Floor is upside down! Tilt angle=[0.0], should be near 180, Surface="OFFICE_OPEN_7_1_0_FLOOR", in Zone="OFFICE_OPEN_7_1_0".
   **   ~~~   ** Automatic fix is attempted.
   ** Warning ** GetVertices: Roof/Ceiling is upside down! Tilt angle=[180.0], should be near 0, Surface="OFFICE_OPEN_7_1_0_CEILING", in Zone="OFFICE_OPEN_7_1_0".
   **   ~~~   ** Automatic fix is attempted.
   ** Warning ** GetVertices: Floor is upside down! Tilt angle=[0.0], should be near 180, Surface="OFFICE_PRIVATE_7_1_1_FLOOR", in Zone="OFFICE_PRIVATE_7_1_1".
   **   ~~~   ** Automatic fix is attempted.
   ** Warning ** GetVertices: Roof/Ceiling is upside down! Tilt angle=[180.0], should be near 0, Surface="OFFICE_PRIVATE_7_1_1_CEILING", in Zone="OFFICE_PRIVATE_7_1_1".
   **   ~~~   ** Automatic fix is attempted.
   ** Warning ** GetVertices: Floor is upside down! Tilt angle=[0.0], should be near 180, Surface="STORAGE_7_1_2_FLOOR", in Zone="STORAGE_7_1_2".
   **   ~~~   ** Automatic fix is attempted.
   ** Warning ** GetVertices: Roof/Ceiling is upside down! Tilt angle=[180.0], should be near 0, Surface="STORAGE_7_1_2_CEILING", in Zone="STORAGE_7_1_2".
   **   ~~~   ** Automatic fix is attempted.
   ** Warning ** GetVertices: Floor is upside down! Tilt angle=[0.0], should be near 180, Surface="OFFICE_OPEN_7_2_0_FLOOR", in Zone="OFFICE_OPEN_7_2_0".
   **   ~~~   ** Automatic fix is attempted.
   ** Warning ** GetVertices: Roof/Ceiling is upside down! Tilt angle=[180.0], should be near 0, Surface="OFFICE_OPEN_7_2_0_CEILING", in Zone="OFFICE_OPEN_7_2_0".
   **   ~~~   ** Automatic fix is attempted.
   ** Warning ** GetVertices: Floor is upside down! Tilt angle=[0.0], should be near 180, Surface="OFFICE_PRIVATE_7_2_1_FLOOR", in Zone="OFFICE_PRIVATE_7_2_1".
   **   ~~~   ** Automatic fix is attempted.
   ** Warning ** GetVertices: Roof/Ceiling is upside down! Tilt angle=[180.0], should be near 0, Surface="OFFICE_PRIVATE_7_2_1_CEILING", in Zone="OFFICE_PRIVATE_7_2_1".
   **   ~~~   ** Automatic fix is attempted.
   ** Warning ** GetVertices: Floor is upside down! Tilt angle=[0.0], should be near 180, Surface="STORAGE_7_2_2_FLOOR", in Zone="STORAGE_7_2_2".
   **   ~~~   ** Automatic fix is attempted.
   ** Warning ** GetVertices: Roof/Ceiling is upside down! Tilt angle=[180.0], should be near 0, Surface="STORAGE_7_2_2_CEILING", in Zone="STORAGE_7_2_2".
   **   ~~~   ** Automatic fix is attempted.
   ** Warning ** GetVertices: Floor is upside down! Tilt angle=[0.0], should be near 180, Surface="OFFICE_OPEN_8_0_0_FLOOR", in Zone="OFFICE_OPEN_8_0_0".
   **   ~~~   ** Automatic fix is attempted.
   ** Warning ** GetVertices: Roof/Ceiling is upside down! Tilt angle=[180.0], should be near 0, Surface="OFFICE_OPEN_8_0_0_CEILING", in Zone="OFFICE_OPEN_8_0_0".
   **   ~~~   ** Automatic fix is attempted.
   ** Warning ** GetVertices: Floor is upside down! Tilt angle=[0.0], should be near 180, Surface="OFFICE_PRIVATE_8_0_1_FLOOR", in Zone="OFFICE_PRIVATE_8_0_1".
   **   ~~~   ** Automatic fix is attempted.
   ** Warning ** GetVertices: Roof/Ceiling is upside down! Tilt angle=[180.0], should be near 0, Surface="OFFICE_PRIVATE_8_0_1_CEILING", in Zone="OFFICE_PRIVATE_8_0_1".
   **   ~~~   ** Automatic fix is attempted.
   ** Warning ** GetVertices: Floor is upside down! Tilt angle=[0.0], should be near 180, Surface="STORAGE_8_0_2_FLOOR", in Zone="STORAGE_8_0_2".
   **   ~~~   ** Automatic fix is attempted.
   ** Warning ** GetVertices: Roof/Ceiling is upside down! Tilt angle=[180.0], should be near 0, Surface="STORAGE_8_0_2_CEILING", in Zone="STORAGE_8_0_2".
   **   ~~~   ** Automatic fix is attempted.
   ** Warning ** GetVertices: Floor is upside down! Tilt angle=[0.0], should be near 180, Surface="OFFICE_OPEN_8_1_0_FLOOR", in Zone="OFFICE_OPEN_8_1_0".
   **   ~~~   ** Automatic fix is attempted.
   ** Warning ** GetVertices: Roof/Ceiling is upside down! Tilt angle=[180.0], should be near 0, Surface="OFFICE_OPEN_8_1_0_CEILING", in Zone="OFFICE_OPEN_8_1_0".
   **   ~~~   ** Automatic fix is attempted.
   ** Warning ** GetVertices: Floor is upside down! Tilt angle=[0.0], should be near 180, Surface="OFFICE_PRIVATE_8_1_1_FLOOR", in Zone="OFFICE_PRIVATE_8_1_1".
   **   ~~~   ** Automatic fix is attempted.
   ** Warning ** GetVertices: Roof/Ceiling is upside down! Tilt angle=[180.0], should be near 0, Surface="OFFICE_PRIVATE_8_1_1_CEILING", in Zone="OFFICE_PRIVATE_8_1_1".
   **   ~~~   ** Automatic fix is attempted.
   ** Warning ** GetVertices: Floor is upside down! Tilt angle=[0.0], should be near 180, Surface="STORAGE_8_1_2_FLOOR", in Zone="STORAGE_8_1_2".
   **   ~~~   ** Automatic fix is attempted.
   ** Warning ** GetVertices: Roof/Ceiling is upside down! Tilt angle=[180.0], should be near 0, Surface="STORAGE_8_1_2_CEILING", in Zone="STORAGE_8_1_2".
   **   ~~~   ** Automatic fix is attempted.
   ** Warning ** GetVertices: Floor is upside down! Tilt angle=[0.0], should be near 180, Surface="OFFICE_OPEN_8_2_0_FLOOR", in Zone="OFFICE_OPEN_8_2_0".
   **   ~~~   ** Automatic fix is attempted.
   ** Warning ** GetVertices: Roof/Ceiling is upside down! Tilt angle=[180.0], should be near 0, Surface="OFFICE_OPEN_8_2_0_CEILING", in Zone="OFFICE_OPEN_8_2_0".
   **   ~~~   ** Automatic fix is attempted.
   ** Warning ** GetVertices: Floor is upside down! Tilt angle=[0.0], should be near 180, Surface="OFFICE_PRIVATE_8_2_1_FLOOR", in Zone="OFFICE_PRIVATE_8_2_1".
   **   ~~~   ** Automatic fix is attempted.
   ** Warning ** GetVertices: Roof/Ceiling is upside down! Tilt angle=[180.0], should be near 0, Surface="OFFICE_PRIVATE_8_2_1_CEILING", in Zone="OFFICE_PRIVATE_8_2_1".
   **   ~~~   ** Automatic fix is attempted.
   ** Warning ** GetVertices: Floor is upside down! Tilt angle=[0.0], should be near 180, Surface="STORAGE_8_2_2_FLOOR", in Zone="STORAGE_8_2_2".
   **   ~~~   ** Automatic fix is attempted.
   ** Warning ** GetVertices: Roof/Ceiling is upside down! Tilt angle=[180.0], should be near 0, Surface="STORAGE_8_2_2_CEILING", in Zone="STORAGE_8_2_2".
   **   ~~~   ** Automatic fix is attempted.
   ** Warning ** GetVertices: Floor is upside down! Tilt angle=[0.0], should be near 180, Surface="OFFICE_OPEN_9_0_0_FLOOR", in Zone="OFFICE_OPEN_9_0_0".
   **   ~~~   ** Automatic fix is attempted.
   ** Warning ** GetVertices: Roof/Ceiling is upside down! Tilt angle=[180.0], should be near 0, Surface="OFFICE_OPEN_9_0_0_CEILING", in Zone="OFFICE_OPEN_9_0_0".
   **   ~~~   ** Automatic fix is attempted.
   ** Warning ** GetVertices: Floor is upside down! Tilt angle=[0.0], should be near 180, Surface="OFFICE_PRIVATE_9_0_1_FLOOR", in Zone="OFFICE_PRIVATE_9_0_1".
   **   ~~~   ** Automatic fix is attempted.
   ** Warning ** GetVertices: Roof/Ceiling is upside down! Tilt angle=[180.0], should be near 0, Surface="OFFICE_PRIVATE_9_0_1_CEILING", in Zone="OFFICE_PRIVATE_9_0_1".
   **   ~~~   ** Automatic fix is attempted.
   ** Warning ** GetVertices: Floor is upside down! Tilt angle=[0.0], should be near 180, Surface="STORAGE_9_0_2_FLOOR", in Zone="STORAGE_9_0_2".
   **   ~~~   ** Automatic fix is attempted.
   ** Warning ** GetVertices: Roof/Ceiling is upside down! Tilt angle=[180.0], should be near 0, Surface="STORAGE_9_0_2_CEILING", in Zone="STORAGE_9_0_2".
   **   ~~~   ** Automatic fix is attempted.
   ** Warning ** GetVertices: Floor is upside down! Tilt angle=[0.0], should be near 180, Surface="OFFICE_OPEN_9_1_0_FLOOR", in Zone="OFFICE_OPEN_9_1_0".
   **   ~~~   ** Automatic fix is attempted.
   ** Warning ** GetVertices: Roof/Ceiling is upside down! Tilt angle=[180.0], should be near 0, Surface="OFFICE_OPEN_9_1_0_CEILING", in Zone="OFFICE_OPEN_9_1_0".
   **   ~~~   ** Automatic fix is attempted.
   ** Warning ** GetVertices: Floor is upside down! Tilt angle=[0.0], should be near 180, Surface="OFFICE_PRIVATE_9_1_1_FLOOR", in Zone="OFFICE_PRIVATE_9_1_1".
   **   ~~~   ** Automatic fix is attempted.
   ** Warning ** GetVertices: Roof/Ceiling is upside down! Tilt angle=[180.0], should be near 0, Surface="OFFICE_PRIVATE_9_1_1_CEILING", in Zone="OFFICE_PRIVATE_9_1_1".
   **   ~~~   ** Automatic fix is attempted.
   ** Warning ** GetVertices: Floor is upside down! Tilt angle=[0.0], should be near 180, Surface="STORAGE_9_1_2_FLOOR", in Zone="STORAGE_9_1_2".
   **   ~~~   ** Automatic fix is attempted.
   ** Warning ** GetVertices: Roof/Ceiling is upside down! Tilt angle=[180.0], should be near 0, Surface="STORAGE_9_1_2_CEILING", in Zone="STORAGE_9_1_2".
   **   ~~~   ** Automatic fix is attempted.
   ** Warning ** GetVertices: Floor is upside down! Tilt angle=[0.0], should be near 180, Surface="OFFICE_OPEN_9_2_0_FLOOR", in Zone="OFFICE_OPEN_9_2_0".
   **   ~~~   ** Automatic fix is attempted.
   ** Warning ** GetVertices: Roof/Ceiling is upside down! Tilt angle=[180.0], should be near 0, Surface="OFFICE_OPEN_9_2_0_CEILING", in Zone="OFFICE_OPEN_9_2_0".
   **   ~~~   ** Automatic fix is attempted.
   ** Warning ** GetVertices: Floor is upside down! Tilt angle=[0.0], should be near 180, Surface="OFFICE_PRIVATE_9_2_1_FLOOR", in Zone="OFFICE_PRIVATE_9_2_1".
   **   ~~~   ** Automatic fix is attempted.
   ** Warning ** GetVertices: Roof/Ceiling is upside down! Tilt angle=[180.0], should be near 0, Surface="OFFICE_PRIVATE_9_2_1_CEILING", in Zone="OFFICE_PRIVATE_9_2_1".
   **   ~~~   ** Automatic fix is attempted.
   ** Warning ** GetVertices: Floor is upside down! Tilt angle=[0.0], should be near 180, Surface="STORAGE_9_2_2_FLOOR", in Zone="STORAGE_9_2_2".
   **   ~~~   ** Automatic fix is attempted.
   ** Warning ** GetVertices: Roof/Ceiling is upside down! Tilt angle=[180.0], should be near 0, Surface="STORAGE_9_2_2_CEILING", in Zone="STORAGE_9_2_2".
   **   ~~~   ** Automatic fix is attempted.
   ** Warning ** Indicated Zone Volume <= 0.0 for Zone=OFFICE_OPEN_0_0_0
   **   ~~~   ** The calculated Zone Volume was=-378.46
   **   ~~~   ** The simulation will continue with the Zone Volume set to 10.0 m3. 
   **   ~~~   ** ...use Output:Diagnostics,DisplayExtraWarnings; to show more details on individual zones.
   ** Warning ** Indicated Zone Volume <= 0.0 for Zone=OFFICE_PRIVATE_0_0_1
   **   ~~~   ** The calculated Zone Volume was=-381.95
   **   ~~~   ** The simulation will continue with the Zone Volume set to 10.0 m3. 
   **   ~~~   ** ...use Output:Diagnostics,DisplayExtraWarnings; to show more details on individual zones.
   ** Warning ** Indicated Zone Volume <= 0.0 for Zone=STORAGE_0_0_2
   **   ~~~   ** The calculated Zone Volume was=-372.05
   **   ~~~   ** The simulation will continue with the Zone Volume set to 10.0 m3. 
   **   ~~~   ** ...use Output:Diagnostics,DisplayExtraWarnings; to show more details on individual zones.
   ** Warning ** Indicated Zone Volume <= 0.0 for Zone=OFFICE_OPEN_0_1_0
   **   ~~~   ** The calculated Zone Volume was=-384.59
   **   ~~~   ** The simulation will continue with the Zone Volume set to 10.0 m3. 
   **   ~~~   ** ...use Output:Diagnostics,DisplayExtraWarnings; to show more details on individual zones.
   ** Warning ** Indicated Zone Volume <= 0.0 for Zone=OFFICE_PRIVATE_0_1_1
   **   ~~~   ** The calculated Zone Volume was=-391.95
   **   ~~~   ** The simulation will continue with the Zone Volume set to 10.0 m3. 
   **   ~~~   ** ...use Output:Diagnostics,DisplayExtraWarnings; to show more details on individual zones.
   ** Warning ** Indicated Zone Volume <= 0.0 for Zone=STORAGE_0_1_2
   **   ~~~   ** The calculated Zone Volume was=-380.89
   **   ~~~   ** The simulation will continue with the Zone Volume set to 10.0 m3. 
   **   ~~~   ** ...use Output:Diagnostics,DisplayExtraWarnings; to show more details on individual zones.
   ** Warning ** Indicated Zone Volume <= 0.0 for Zone=OFFICE_OPEN_0_2_0
   **   ~~~   ** The calculated Zone Volume was=-317.41
   **   ~~~   ** The simulation will continue with the Zone Volume set to 10.0 m3. 
   **   ~~~   ** ...use Output:Diagnostics,DisplayExtraWarnings; to show more details on individual zones.
   ** Warning ** Indicated Zone Volume <= 0.0 for Zone=OFFICE_PRIVATE_0_2_1
   **   ~~~   ** The calculated Zone Volume was=-362.82
   **   ~~~   ** The simulation will continue with the Zone Volume set to 10.0 m3. 
   **   ~~~   ** ...use Output:Diagnostics,DisplayExtraWarnings; to show more details on individual zones.
   ** Warning ** Indicated Zone Volume <= 0.0 for Zone=STORAGE_0_2_2
   **   ~~~   ** The calculated Zone Volume was=-359.79
   **   ~~~   ** The simulation will continue with the Zone Volume set to 10.0 m3. 
   **   ~~~   ** ...use Output:Diagnostics,DisplayExtraWarnings; to show more details on individual zones.
   ** Warning ** Indicated Zone Volume <= 0.0 for Zone=OFFICE_OPEN_1_0_0
   **   ~~~   ** The calculated Zone Volume was=-378.46
   **   ~~~   ** The simulation will continue with the Zone Volume set to 10.0 m3. 
   **   ~~~   ** ...use Output:Diagnostics,DisplayExtraWarnings; to show more details on individual zones.
   ** Warning ** Indicated Zone Volume <= 0.0 for Zone=OFFICE_PRIVATE_1_0_1
   **   ~~~   ** The calculated Zone Volume was=-381.95
   **   ~~~   ** The simulation will continue with the Zone Volume set to 10.0 m3. 
   **   ~~~   ** ...use Output:Diagnostics,DisplayExtraWarnings; to show more details on individual zones.
   ** Warning ** Indicated Zone Volume <= 0.0 for Zone=STORAGE_1_0_2
   **   ~~~   ** The calculated Zone Volume was=-372.05
   **   ~~~   ** The simulation will continue with the Zone Volume set to 10.0 m3. 
   **   ~~~   ** ...use Output:Diagnostics,DisplayExtraWarnings; to show more details on individual zones.
   ** Warning ** Indicated Zone Volume <= 0.0 for Zone=OFFICE_OPEN_1_1_0
   **   ~~~   ** The calculated Zone Volume was=-384.59
   **   ~~~   ** The simulation will continue with the Zone Volume set to 10.0 m3. 
   **   ~~~   ** ...use Output:Diagnostics,DisplayExtraWarnings; to show more details on individual zones.
   ** Warning ** Indicated Zone Volume <= 0.0 for Zone=OFFICE_PRIVATE_1_1_1
   **   ~~~   ** The calculated Zone Volume was=-391.95
   **   ~~~   ** The simulation will continue with the Zone Volume set to 10.0 m3. 
   **   ~~~   ** ...use Output:Diagnostics,DisplayExtraWarnings; to show more details on individual zones.
   ** Warning ** Indicated Zone Volume <= 0.0 for Zone=STORAGE_1_1_2
   **   ~~~   ** The calculated Zone Volume was=-380.89
   **   ~~~   ** The simulation will continue with the Zone Volume set to 10.0 m3. 
   **   ~~~   ** ...use Output:Diagnostics,DisplayExtraWarnings; to show more details on individual zones.
   ** Warning ** Indicated Zone Volume <= 0.0 for Zone=OFFICE_OPEN_1_2_0
   **   ~~~   ** The calculated Zone Volume was=-317.41
   **   ~~~   ** The simulation will continue with the Zone Volume set to 10.0 m3. 
   **   ~~~   ** ...use Output:Diagnostics,DisplayExtraWarnings; to show more details on individual zones.
   ** Warning ** Indicated Zone Volume <= 0.0 for Zone=OFFICE_PRIVATE_1_2_1
   **   ~~~   ** The calculated Zone Volume was=-362.82
   **   ~~~   ** The simulation will continue with the Zone Volume set to 10.0 m3. 
   **   ~~~   ** ...use Output:Diagnostics,DisplayExtraWarnings; to show more details on individual zones.
   ** Warning ** Indicated Zone Volume <= 0.0 for Zone=STORAGE_1_2_2
   **   ~~~   ** The calculated Zone Volume was=-359.79
   **   ~~~   ** The simulation will continue with the Zone Volume set to 10.0 m3. 
   **   ~~~   ** ...use Output:Diagnostics,DisplayExtraWarnings; to show more details on individual zones.
   ** Warning ** Indicated Zone Volume <= 0.0 for Zone=OFFICE_OPEN_2_0_0
   **   ~~~   ** The calculated Zone Volume was=-378.46
   **   ~~~   ** The simulation will continue with the Zone Volume set to 10.0 m3. 
   **   ~~~   ** ...use Output:Diagnostics,DisplayExtraWarnings; to show more details on individual zones.
   ** Warning ** Indicated Zone Volume <= 0.0 for Zone=OFFICE_PRIVATE_2_0_1
   **   ~~~   ** The calculated Zone Volume was=-381.95
   **   ~~~   ** The simulation will continue with the Zone Volume set to 10.0 m3. 
   **   ~~~   ** ...use Output:Diagnostics,DisplayExtraWarnings; to show more details on individual zones.
   ** Warning ** Indicated Zone Volume <= 0.0 for Zone=STORAGE_2_0_2
   **   ~~~   ** The calculated Zone Volume was=-372.05
   **   ~~~   ** The simulation will continue with the Zone Volume set to 10.0 m3. 
   **   ~~~   ** ...use Output:Diagnostics,DisplayExtraWarnings; to show more details on individual zones.
   ** Warning ** Indicated Zone Volume <= 0.0 for Zone=OFFICE_OPEN_2_1_0
   **   ~~~   ** The calculated Zone Volume was=-384.59
   **   ~~~   ** The simulation will continue with the Zone Volume set to 10.0 m3. 
   **   ~~~   ** ...use Output:Diagnostics,DisplayExtraWarnings; to show more details on individual zones.
   ** Warning ** Indicated Zone Volume <= 0.0 for Zone=OFFICE_PRIVATE_2_1_1
   **   ~~~   ** The calculated Zone Volume was=-391.95
   **   ~~~   ** The simulation will continue with the Zone Volume set to 10.0 m3. 
   **   ~~~   ** ...use Output:Diagnostics,DisplayExtraWarnings; to show more details on individual zones.
   ** Warning ** Indicated Zone Volume <= 0.0 for Zone=STORAGE_2_1_2
   **   ~~~   ** The calculated Zone Volume was=-380.89
   **   ~~~   ** The simulation will continue with the Zone Volume set to 10.0 m3. 
   **   ~~~   ** ...use Output:Diagnostics,DisplayExtraWarnings; to show more details on individual zones.
   ** Warning ** Indicated Zone Volume <= 0.0 for Zone=OFFICE_OPEN_2_2_0
   **   ~~~   ** The calculated Zone Volume was=-317.41
   **   ~~~   ** The simulation will continue with the Zone Volume set to 10.0 m3. 
   **   ~~~   ** ...use Output:Diagnostics,DisplayExtraWarnings; to show more details on individual zones.
   ** Warning ** Indicated Zone Volume <= 0.0 for Zone=OFFICE_PRIVATE_2_2_1
   **   ~~~   ** The calculated Zone Volume was=-362.82
   **   ~~~   ** The simulation will continue with the Zone Volume set to 10.0 m3. 
   **   ~~~   ** ...use Output:Diagnostics,DisplayExtraWarnings; to show more details on individual zones.
   ** Warning ** Indicated Zone Volume <= 0.0 for Zone=STORAGE_2_2_2
   **   ~~~   ** The calculated Zone Volume was=-359.79
   **   ~~~   ** The simulation will continue with the Zone Volume set to 10.0 m3. 
   **   ~~~   ** ...use Output:Diagnostics,DisplayExtraWarnings; to show more details on individual zones.
   ** Warning ** Indicated Zone Volume <= 0.0 for Zone=OFFICE_OPEN_3_0_0
   **   ~~~   ** The calculated Zone Volume was=-378.46
   **   ~~~   ** The simulation will continue with the Zone Volume set to 10.0 m3. 
   **   ~~~   ** ...use Output:Diagnostics,DisplayExtraWarnings; to show more details on individual zones.
   ** Warning ** Indicated Zone Volume <= 0.0 for Zone=OFFICE_PRIVATE_3_0_1
   **   ~~~   ** The calculated Zone Volume was=-381.95
   **   ~~~   ** The simulation will continue with the Zone Volume set to 10.0 m3. 
   **   ~~~   ** ...use Output:Diagnostics,DisplayExtraWarnings; to show more details on individual zones.
   ** Warning ** Indicated Zone Volume <= 0.0 for Zone=STORAGE_3_0_2
   **   ~~~   ** The calculated Zone Volume was=-372.05
   **   ~~~   ** The simulation will continue with the Zone Volume set to 10.0 m3. 
   **   ~~~   ** ...use Output:Diagnostics,DisplayExtraWarnings; to show more details on individual zones.
   ** Warning ** Indicated Zone Volume <= 0.0 for Zone=OFFICE_OPEN_3_1_0
   **   ~~~   ** The calculated Zone Volume was=-384.59
   **   ~~~   ** The simulation will continue with the Zone Volume set to 10.0 m3. 
   **   ~~~   ** ...use Output:Diagnostics,DisplayExtraWarnings; to show more details on individual zones.
   ** Warning ** Indicated Zone Volume <= 0.0 for Zone=OFFICE_PRIVATE_3_1_1
   **   ~~~   ** The calculated Zone Volume was=-391.95
   **   ~~~   ** The simulation will continue with the Zone Volume set to 10.0 m3. 
   **   ~~~   ** ...use Output:Diagnostics,DisplayExtraWarnings; to show more details on individual zones.
   ** Warning ** Indicated Zone Volume <= 0.0 for Zone=STORAGE_3_1_2
   **   ~~~   ** The calculated Zone Volume was=-380.89
   **   ~~~   ** The simulation will continue with the Zone Volume set to 10.0 m3. 
   **   ~~~   ** ...use Output:Diagnostics,DisplayExtraWarnings; to show more details on individual zones.
   ** Warning ** Indicated Zone Volume <= 0.0 for Zone=OFFICE_OPEN_3_2_0
   **   ~~~   ** The calculated Zone Volume was=-317.41
   **   ~~~   ** The simulation will continue with the Zone Volume set to 10.0 m3. 
   **   ~~~   ** ...use Output:Diagnostics,DisplayExtraWarnings; to show more details on individual zones.
   ** Warning ** Indicated Zone Volume <= 0.0 for Zone=OFFICE_PRIVATE_3_2_1
   **   ~~~   ** The calculated Zone Volume was=-362.82
   **   ~~~   ** The simulation will continue with the Zone Volume set to 10.0 m3. 
   **   ~~~   ** ...use Output:Diagnostics,DisplayExtraWarnings; to show more details on individual zones.
   ** Warning ** Indicated Zone Volume <= 0.0 for Zone=STORAGE_3_2_2
   **   ~~~   ** The calculated Zone Volume was=-359.79
   **   ~~~   ** The simulation will continue with the Zone Volume set to 10.0 m3. 
   **   ~~~   ** ...use Output:Diagnostics,DisplayExtraWarnings; to show more details on individual zones.
   ** Warning ** Indicated Zone Volume <= 0.0 for Zone=OFFICE_OPEN_4_0_0
   **   ~~~   ** The calculated Zone Volume was=-378.46
   **   ~~~   ** The simulation will continue with the Zone Volume set to 10.0 m3. 
   **   ~~~   ** ...use Output:Diagnostics,DisplayExtraWarnings; to show more details on individual zones.
   ** Warning ** Indicated Zone Volume <= 0.0 for Zone=OFFICE_PRIVATE_4_0_1
   **   ~~~   ** The calculated Zone Volume was=-381.95
   **   ~~~   ** The simulation will continue with the Zone Volume set to 10.0 m3. 
   **   ~~~   ** ...use Output:Diagnostics,DisplayExtraWarnings; to show more details on individual zones.
   ** Warning ** Indicated Zone Volume <= 0.0 for Zone=STORAGE_4_0_2
   **   ~~~   ** The calculated Zone Volume was=-372.05
   **   ~~~   ** The simulation will continue with the Zone Volume set to 10.0 m3. 
   **   ~~~   ** ...use Output:Diagnostics,DisplayExtraWarnings; to show more details on individual zones.
   ** Warning ** Indicated Zone Volume <= 0.0 for Zone=OFFICE_OPEN_4_1_0
   **   ~~~   ** The calculated Zone Volume was=-384.59
   **   ~~~   ** The simulation will continue with the Zone Volume set to 10.0 m3. 
   **   ~~~   ** ...use Output:Diagnostics,DisplayExtraWarnings; to show more details on individual zones.
   ** Warning ** Indicated Zone Volume <= 0.0 for Zone=OFFICE_PRIVATE_4_1_1
   **   ~~~   ** The calculated Zone Volume was=-391.95
   **   ~~~   ** The simulation will continue with the Zone Volume set to 10.0 m3. 
   **   ~~~   ** ...use Output:Diagnostics,DisplayExtraWarnings; to show more details on individual zones.
   ** Warning ** Indicated Zone Volume <= 0.0 for Zone=STORAGE_4_1_2
   **   ~~~   ** The calculated Zone Volume was=-380.89
   **   ~~~   ** The simulation will continue with the Zone Volume set to 10.0 m3. 
   **   ~~~   ** ...use Output:Diagnostics,DisplayExtraWarnings; to show more details on individual zones.
   ** Warning ** Indicated Zone Volume <= 0.0 for Zone=OFFICE_OPEN_4_2_0
   **   ~~~   ** The calculated Zone Volume was=-317.41
   **   ~~~   ** The simulation will continue with the Zone Volume set to 10.0 m3. 
   **   ~~~   ** ...use Output:Diagnostics,DisplayExtraWarnings; to show more details on individual zones.
   ** Warning ** Indicated Zone Volume <= 0.0 for Zone=OFFICE_PRIVATE_4_2_1
   **   ~~~   ** The calculated Zone Volume was=-362.82
   **   ~~~   ** The simulation will continue with the Zone Volume set to 10.0 m3. 
   **   ~~~   ** ...use Output:Diagnostics,DisplayExtraWarnings; to show more details on individual zones.
   ** Warning ** Indicated Zone Volume <= 0.0 for Zone=STORAGE_4_2_2
   **   ~~~   ** The calculated Zone Volume was=-359.79
   **   ~~~   ** The simulation will continue with the Zone Volume set to 10.0 m3. 
   **   ~~~   ** ...use Output:Diagnostics,DisplayExtraWarnings; to show more details on individual zones.
   ** Warning ** Indicated Zone Volume <= 0.0 for Zone=OFFICE_OPEN_5_0_0
   **   ~~~   ** The calculated Zone Volume was=-378.46
   **   ~~~   ** The simulation will continue with the Zone Volume set to 10.0 m3. 
   **   ~~~   ** ...use Output:Diagnostics,DisplayExtraWarnings; to show more details on individual zones.
   ** Warning ** Indicated Zone Volume <= 0.0 for Zone=OFFICE_PRIVATE_5_0_1
   **   ~~~   ** The calculated Zone Volume was=-381.95
   **   ~~~   ** The simulation will continue with the Zone Volume set to 10.0 m3. 
   **   ~~~   ** ...use Output:Diagnostics,DisplayExtraWarnings; to show more details on individual zones.
   ** Warning ** Indicated Zone Volume <= 0.0 for Zone=STORAGE_5_0_2
   **   ~~~   ** The calculated Zone Volume was=-372.05
   **   ~~~   ** The simulation will continue with the Zone Volume set to 10.0 m3. 
   **   ~~~   ** ...use Output:Diagnostics,DisplayExtraWarnings; to show more details on individual zones.
   ** Warning ** Indicated Zone Volume <= 0.0 for Zone=OFFICE_OPEN_5_1_0
   **   ~~~   ** The calculated Zone Volume was=-384.59
   **   ~~~   ** The simulation will continue with the Zone Volume set to 10.0 m3. 
   **   ~~~   ** ...use Output:Diagnostics,DisplayExtraWarnings; to show more details on individual zones.
   ** Warning ** Indicated Zone Volume <= 0.0 for Zone=OFFICE_PRIVATE_5_1_1
   **   ~~~   ** The calculated Zone Volume was=-391.95
   **   ~~~   ** The simulation will continue with the Zone Volume set to 10.0 m3. 
   **   ~~~   ** ...use Output:Diagnostics,DisplayExtraWarnings; to show more details on individual zones.
   ** Warning ** Indicated Zone Volume <= 0.0 for Zone=STORAGE_5_1_2
   **   ~~~   ** The calculated Zone Volume was=-380.89
   **   ~~~   ** The simulation will continue with the Zone Volume set to 10.0 m3. 
   **   ~~~   ** ...use Output:Diagnostics,DisplayExtraWarnings; to show more details on individual zones.
   ** Warning ** Indicated Zone Volume <= 0.0 for Zone=OFFICE_OPEN_5_2_0
   **   ~~~   ** The calculated Zone Volume was=-317.41
   **   ~~~   ** The simulation will continue with the Zone Volume set to 10.0 m3. 
   **   ~~~   ** ...use Output:Diagnostics,DisplayExtraWarnings; to show more details on individual zones.
   ** Warning ** Indicated Zone Volume <= 0.0 for Zone=OFFICE_PRIVATE_5_2_1
   **   ~~~   ** The calculated Zone Volume was=-362.82
   **   ~~~   ** The simulation will continue with the Zone Volume set to 10.0 m3. 
   **   ~~~   ** ...use Output:Diagnostics,DisplayExtraWarnings; to show more details on individual zones.
   ** Warning ** Indicated Zone Volume <= 0.0 for Zone=STORAGE_5_2_2
   **   ~~~   ** The calculated Zone Volume was=-359.79
   **   ~~~   ** The simulation will continue with the Zone Volume set to 10.0 m3. 
   **   ~~~   ** ...use Output:Diagnostics,DisplayExtraWarnings; to show more details on individual zones.
   ** Warning ** Indicated Zone Volume <= 0.0 for Zone=OFFICE_OPEN_6_0_0
   **   ~~~   ** The calculated Zone Volume was=-378.46
   **   ~~~   ** The simulation will continue with the Zone Volume set to 10.0 m3. 
   **   ~~~   ** ...use Output:Diagnostics,DisplayExtraWarnings; to show more details on individual zones.
   ** Warning ** Indicated Zone Volume <= 0.0 for Zone=OFFICE_PRIVATE_6_0_1
   **   ~~~   ** The calculated Zone Volume was=-381.95
   **   ~~~   ** The simulation will continue with the Zone Volume set to 10.0 m3. 
   **   ~~~   ** ...use Output:Diagnostics,DisplayExtraWarnings; to show more details on individual zones.
   ** Warning ** Indicated Zone Volume <= 0.0 for Zone=STORAGE_6_0_2
   **   ~~~   ** The calculated Zone Volume was=-372.05
   **   ~~~   ** The simulation will continue with the Zone Volume set to 10.0 m3. 
   **   ~~~   ** ...use Output:Diagnostics,DisplayExtraWarnings; to show more details on individual zones.
   ** Warning ** Indicated Zone Volume <= 0.0 for Zone=OFFICE_OPEN_6_1_0
   **   ~~~   ** The calculated Zone Volume was=-384.59
   **   ~~~   ** The simulation will continue with the Zone Volume set to 10.0 m3. 
   **   ~~~   ** ...use Output:Diagnostics,DisplayExtraWarnings; to show more details on individual zones.
   ** Warning ** Indicated Zone Volume <= 0.0 for Zone=OFFICE_PRIVATE_6_1_1
   **   ~~~   ** The calculated Zone Volume was=-391.95
   **   ~~~   ** The simulation will continue with the Zone Volume set to 10.0 m3. 
   **   ~~~   ** ...use Output:Diagnostics,DisplayExtraWarnings; to show more details on individual zones.
   ** Warning ** Indicated Zone Volume <= 0.0 for Zone=STORAGE_6_1_2
   **   ~~~   ** The calculated Zone Volume was=-380.89
   **   ~~~   ** The simulation will continue with the Zone Volume set to 10.0 m3. 
   **   ~~~   ** ...use Output:Diagnostics,DisplayExtraWarnings; to show more details on individual zones.
   ** Warning ** Indicated Zone Volume <= 0.0 for Zone=OFFICE_OPEN_6_2_0
   **   ~~~   ** The calculated Zone Volume was=-317.41
   **   ~~~   ** The simulation will continue with the Zone Volume set to 10.0 m3. 
   **   ~~~   ** ...use Output:Diagnostics,DisplayExtraWarnings; to show more details on individual zones.
   ** Warning ** Indicated Zone Volume <= 0.0 for Zone=OFFICE_PRIVATE_6_2_1
   **   ~~~   ** The calculated Zone Volume was=-362.82
   **   ~~~   ** The simulation will continue with the Zone Volume set to 10.0 m3. 
   **   ~~~   ** ...use Output:Diagnostics,DisplayExtraWarnings; to show more details on individual zones.
   ** Warning ** Indicated Zone Volume <= 0.0 for Zone=STORAGE_6_2_2
   **   ~~~   ** The calculated Zone Volume was=-359.79
   **   ~~~   ** The simulation will continue with the Zone Volume set to 10.0 m3. 
   **   ~~~   ** ...use Output:Diagnostics,DisplayExtraWarnings; to show more details on individual zones.
   ** Warning ** Indicated Zone Volume <= 0.0 for Zone=OFFICE_OPEN_7_0_0
   **   ~~~   ** The calculated Zone Volume was=-378.46
   **   ~~~   ** The simulation will continue with the Zone Volume set to 10.0 m3. 
   **   ~~~   ** ...use Output:Diagnostics,DisplayExtraWarnings; to show more details on individual zones.
   ** Warning ** Indicated Zone Volume <= 0.0 for Zone=OFFICE_PRIVATE_7_0_1
   **   ~~~   ** The calculated Zone Volume was=-381.95
   **   ~~~   ** The simulation will continue with the Zone Volume set to 10.0 m3. 
   **   ~~~   ** ...use Output:Diagnostics,DisplayExtraWarnings; to show more details on individual zones.
   ** Warning ** Indicated Zone Volume <= 0.0 for Zone=STORAGE_7_0_2
   **   ~~~   ** The calculated Zone Volume was=-372.05
   **   ~~~   ** The simulation will continue with the Zone Volume set to 10.0 m3. 
   **   ~~~   ** ...use Output:Diagnostics,DisplayExtraWarnings; to show more details on individual zones.
   ** Warning ** Indicated Zone Volume <= 0.0 for Zone=OFFICE_OPEN_7_1_0
   **   ~~~   ** The calculated Zone Volume was=-384.59
   **   ~~~   ** The simulation will continue with the Zone Volume set to 10.0 m3. 
   **   ~~~   ** ...use Output:Diagnostics,DisplayExtraWarnings; to show more details on individual zones.
   ** Warning ** Indicated Zone Volume <= 0.0 for Zone=OFFICE_PRIVATE_7_1_1
   **   ~~~   ** The calculated Zone Volume was=-391.95
   **   ~~~   ** The simulation will continue with the Zone Volume set to 10.0 m3. 
   **   ~~~   ** ...use Output:Diagnostics,DisplayExtraWarnings; to show more details on individual zones.
   ** Warning ** Indicated Zone Volume <= 0.0 for Zone=STORAGE_7_1_2
   **   ~~~   ** The calculated Zone Volume was=-380.89
   **   ~~~   ** The simulation will continue with the Zone Volume set to 10.0 m3. 
   **   ~~~   ** ...use Output:Diagnostics,DisplayExtraWarnings; to show more details on individual zones.
   ** Warning ** Indicated Zone Volume <= 0.0 for Zone=OFFICE_OPEN_7_2_0
   **   ~~~   ** The calculated Zone Volume was=-317.41
   **   ~~~   ** The simulation will continue with the Zone Volume set to 10.0 m3. 
   **   ~~~   ** ...use Output:Diagnostics,DisplayExtraWarnings; to show more details on individual zones.
   ** Warning ** Indicated Zone Volume <= 0.0 for Zone=OFFICE_PRIVATE_7_2_1
   **   ~~~   ** The calculated Zone Volume was=-362.82
   **   ~~~   ** The simulation will continue with the Zone Volume set to 10.0 m3. 
   **   ~~~   ** ...use Output:Diagnostics,DisplayExtraWarnings; to show more details on individual zones.
   ** Warning ** Indicated Zone Volume <= 0.0 for Zone=STORAGE_7_2_2
   **   ~~~   ** The calculated Zone Volume was=-359.79
   **   ~~~   ** The simulation will continue with the Zone Volume set to 10.0 m3. 
   **   ~~~   ** ...use Output:Diagnostics,DisplayExtraWarnings; to show more details on individual zones.
   ** Warning ** Indicated Zone Volume <= 0.0 for Zone=OFFICE_OPEN_8_0_0
   **   ~~~   ** The calculated Zone Volume was=-378.46
   **   ~~~   ** The simulation will continue with the Zone Volume set to 10.0 m3. 
   **   ~~~   ** ...use Output:Diagnostics,DisplayExtraWarnings; to show more details on individual zones.
   ** Warning ** Indicated Zone Volume <= 0.0 for Zone=OFFICE_PRIVATE_8_0_1
   **   ~~~   ** The calculated Zone Volume was=-381.95
   **   ~~~   ** The simulation will continue with the Zone Volume set to 10.0 m3. 
   **   ~~~   ** ...use Output:Diagnostics,DisplayExtraWarnings; to show more details on individual zones.
   ** Warning ** Indicated Zone Volume <= 0.0 for Zone=STORAGE_8_0_2
   **   ~~~   ** The calculated Zone Volume was=-372.05
   **   ~~~   ** The simulation will continue with the Zone Volume set to 10.0 m3. 
   **   ~~~   ** ...use Output:Diagnostics,DisplayExtraWarnings; to show more details on individual zones.
   ** Warning ** Indicated Zone Volume <= 0.0 for Zone=OFFICE_OPEN_8_1_0
   **   ~~~   ** The calculated Zone Volume was=-384.59
   **   ~~~   ** The simulation will continue with the Zone Volume set to 10.0 m3. 
   **   ~~~   ** ...use Output:Diagnostics,DisplayExtraWarnings; to show more details on individual zones.
   ** Warning ** Indicated Zone Volume <= 0.0 for Zone=OFFICE_PRIVATE_8_1_1
   **   ~~~   ** The calculated Zone Volume was=-391.95
   **   ~~~   ** The simulation will continue with the Zone Volume set to 10.0 m3. 
   **   ~~~   ** ...use Output:Diagnostics,DisplayExtraWarnings; to show more details on individual zones.
   ** Warning ** Indicated Zone Volume <= 0.0 for Zone=STORAGE_8_1_2
   **   ~~~   ** The calculated Zone Volume was=-380.89
   **   ~~~   ** The simulation will continue with the Zone Volume set to 10.0 m3. 
   **   ~~~   ** ...use Output:Diagnostics,DisplayExtraWarnings; to show more details on individual zones.
   ** Warning ** Indicated Zone Volume <= 0.0 for Zone=OFFICE_OPEN_8_2_0
   **   ~~~   ** The calculated Zone Volume was=-317.41
   **   ~~~   ** The simulation will continue with the Zone Volume set to 10.0 m3. 
   **   ~~~   ** ...use Output:Diagnostics,DisplayExtraWarnings; to show more details on individual zones.
   ** Warning ** Indicated Zone Volume <= 0.0 for Zone=OFFICE_PRIVATE_8_2_1
   **   ~~~   ** The calculated Zone Volume was=-362.82
   **   ~~~   ** The simulation will continue with the Zone Volume set to 10.0 m3. 
   **   ~~~   ** ...use Output:Diagnostics,DisplayExtraWarnings; to show more details on individual zones.
   ** Warning ** Indicated Zone Volume <= 0.0 for Zone=STORAGE_8_2_2
   **   ~~~   ** The calculated Zone Volume was=-359.79
   **   ~~~   ** The simulation will continue with the Zone Volume set to 10.0 m3. 
   **   ~~~   ** ...use Output:Diagnostics,DisplayExtraWarnings; to show more details on individual zones.
   ** Warning ** Indicated Zone Volume <= 0.0 for Zone=OFFICE_OPEN_9_0_0
   **   ~~~   ** The calculated Zone Volume was=-378.46
   **   ~~~   ** The simulation will continue with the Zone Volume set to 10.0 m3. 
   **   ~~~   ** ...use Output:Diagnostics,DisplayExtraWarnings; to show more details on individual zones.
   ** Warning ** Indicated Zone Volume <= 0.0 for Zone=OFFICE_PRIVATE_9_0_1
   **   ~~~   ** The calculated Zone Volume was=-381.95
   **   ~~~   ** The simulation will continue with the Zone Volume set to 10.0 m3. 
   **   ~~~   ** ...use Output:Diagnostics,DisplayExtraWarnings; to show more details on individual zones.
   ** Warning ** Indicated Zone Volume <= 0.0 for Zone=STORAGE_9_0_2
   **   ~~~   ** The calculated Zone Volume was=-372.05
   **   ~~~   ** The simulation will continue with the Zone Volume set to 10.0 m3. 
   **   ~~~   ** ...use Output:Diagnostics,DisplayExtraWarnings; to show more details on individual zones.
   ** Warning ** Indicated Zone Volume <= 0.0 for Zone=OFFICE_OPEN_9_1_0
   **   ~~~   ** The calculated Zone Volume was=-384.59
   **   ~~~   ** The simulation will continue with the Zone Volume set to 10.0 m3. 
   **   ~~~   ** ...use Output:Diagnostics,DisplayExtraWarnings; to show more details on individual zones.
   ** Warning ** Indicated Zone Volume <= 0.0 for Zone=OFFICE_PRIVATE_9_1_1
   **   ~~~   ** The calculated Zone Volume was=-391.95
   **   ~~~   ** The simulation will continue with the Zone Volume set to 10.0 m3. 
   **   ~~~   ** ...use Output:Diagnostics,DisplayExtraWarnings; to show more details on individual zones.
   ** Warning ** Indicated Zone Volume <= 0.0 for Zone=STORAGE_9_1_2
   **   ~~~   ** The calculated Zone Volume was=-380.89
   **   ~~~   ** The simulation will continue with the Zone Volume set to 10.0 m3. 
   **   ~~~   ** ...use Output:Diagnostics,DisplayExtraWarnings; to show more details on individual zones.
   ** Warning ** Indicated Zone Volume <= 0.0 for Zone=OFFICE_OPEN_9_2_0
   **   ~~~   ** The calculated Zone Volume was=-317.41
   **   ~~~   ** The simulation will continue with the Zone Volume set to 10.0 m3. 
   **   ~~~   ** ...use Output:Diagnostics,DisplayExtraWarnings; to show more details on individual zones.
   ** Warning ** Indicated Zone Volume <= 0.0 for Zone=OFFICE_PRIVATE_9_2_1
   **   ~~~   ** The calculated Zone Volume was=-362.82
   **   ~~~   ** The simulation will continue with the Zone Volume set to 10.0 m3. 
   **   ~~~   ** ...use Output:Diagnostics,DisplayExtraWarnings; to show more details on individual zones.
   ** Warning ** Indicated Zone Volume <= 0.0 for Zone=STORAGE_9_2_2
   **   ~~~   ** The calculated Zone Volume was=-359.79
   **   ~~~   ** The simulation will continue with the Zone Volume set to 10.0 m3. 
   **   ~~~   ** ...use Output:Diagnostics,DisplayExtraWarnings; to show more details on individual zones.
   ** Severe  ** Problem in interior solar distribution calculation (CHKBKS)
   **   ~~~   **    Solar Distribution = FullInteriorExterior will not work in Zone=OFFICE_OPEN_0_0_0
   **   ~~~   **    because one or more of vertices, such as Vertex 2 of back surface=OFFICE_OPEN_0_0_0_WALL_2, is in front of receiving surface=OFFICE_OPEN_0_0_0_WALL_1
   **   ~~~   **    (Dot Product indicator=            582.6056)
   **   ~~~   **    Check surface geometry; if OK, use Solar Distribution = FullExterior instead. Use Output:Diagnostics, DisplayExtraWarnings; for more details.
   ** Severe  ** Problem in interior solar distribution calculation (CHKBKS)
   **   ~~~   **    Solar Distribution = FullInteriorExterior will not work in Zone=OFFICE_OPEN_0_0_0
   **   ~~~   **    because one or more of vertices, such as Vertex 1 of back surface=OFFICE_OPEN_0_0_0_WALL_3, is in front of receiving surface=OFFICE_OPEN_0_0_0_WALL_1
   **   ~~~   **    (Dot Product indicator=            582.6056)
   **   ~~~   **    Check surface geometry; if OK, use Solar Distribution = FullExterior instead. Use Output:Diagnostics, DisplayExtraWarnings; for more details.
   ** Severe  ** Problem in interior solar distribution calculation (CHKBKS)
   **   ~~~   **    Solar Distribution = FullInteriorExterior will not work in Zone=OFFICE_OPEN_0_0_0
   **   ~~~   **    because one or more of vertices, such as Vertex 1 of back surface=OFFICE_OPEN_0_0_0_WALL_4, is in front of receiving surface=OFFICE_OPEN_0_0_0_WALL_1
   **   ~~~   **    (Dot Product indicator=            562.5253)
   **   ~~~   **    Check surface geometry; if OK, use Solar Distribution = FullExterior instead. Use Output:Diagnostics, DisplayExtraWarnings; for more details.
   ** Severe  ** Problem in interior solar distribution calculation (CHKBKS)
   **   ~~~   **    Solar Distribution = FullInteriorExterior will not work in Zone=OFFICE_OPEN_0_0_0
   **   ~~~   **    because one or more of vertices, such as Vertex 3 of back surface=OFFICE_OPEN_0_0_0_FLOOR, is in front of receiving surface=OFFICE_OPEN_0_0_0_WALL_1
   **   ~~~   **    (Dot Product indicator=            582.6056)
   **   ~~~   **    Check surface geometry; if OK, use Solar Distribution = FullExterior instead. Use Output:Diagnostics, DisplayExtraWarnings; for more details.
   ** Severe  ** Problem in interior solar distribution calculation (CHKBKS)
   **   ~~~   **    Solar Distribution = FullInteriorExterior will not work in Zone=OFFICE_OPEN_0_0_0
   **   ~~~   **    because one or more of vertices, such as Vertex 1 of back surface=OFFICE_OPEN_0_0_0_CEILING, is in front of receiving surface=OFFICE_OPEN_0_0_0_WALL_1
   **   ~~~   **    (Dot Product indicator=            562.5253)
   **   ~~~   **    Check surface geometry; if OK, use Solar Distribution = FullExterior instead. Use Output:Diagnostics, DisplayExtraWarnings; for more details.
   ** Severe  ** Problem in interior solar distribution calculation (CHKBKS)
   **   ~~~   **    Solar Distribution = FullInteriorExterior will not work in Zone=OFFICE_OPEN_0_0_0
   **   ~~~   **    because one or more of vertices, such as Vertex 1 of back surface=OFFICE_OPEN_0_0_0_WINDOW_2, is in front of receiving surface=OFFICE_OPEN_0_0_0_WALL_1
   **   ~~~   **    (Dot Product indicator=             87.4313)
   **   ~~~   **    Check surface geometry; if OK, use Solar Distribution = FullExterior instead. Use Output:Diagnostics, DisplayExtraWarnings; for more details.
   ** Severe  ** Problem in interior solar distribution calculation (CHKBKS)
   **   ~~~   **    Solar Distribution = FullInteriorExterior will not work in Zone=OFFICE_OPEN_0_0_0
   **   ~~~   **    because one or more of vertices, such as Vertex 1 of back surface=OFFICE_OPEN_0_0_0_WINDOW_3, is in front of receiving surface=OFFICE_OPEN_0_0_0_WALL_1
   **   ~~~   **    (Dot Product indicator=            581.4613)
   **   ~~~   **    Check surface geometry; if OK, use Solar Distribution = FullExterior instead. Use Output:Diagnostics, DisplayExtraWarnings; for more details.
   ** Severe  ** Problem in interior solar distribution calculation (CHKBKS)
   **   ~~~   **    Solar Distribution = FullInteriorExterior will not work in Zone=OFFICE_OPEN_0_0_0
   **   ~~~   **    because one or more of vertices, such as Vertex 1 of back surface=OFFICE_OPEN_0_0_0_WINDOW_4, is in front of receiving surface=OFFICE_OPEN_0_0_0_WALL_1
   **   ~~~   **    (Dot Product indicator=            478.1581)
   **   ~~~   **    Check surface geometry; if OK, use Solar Distribution = FullExterior instead. Use Output:Diagnostics, DisplayExtraWarnings; for more details.
   ** Severe  ** Problem in interior solar distribution calculation (CHKBKS)
   **   ~~~   **    Solar Distribution = FullInteriorExterior will not work in Zone=OFFICE_OPEN_0_0_0
   **   ~~~   **    because one or more of vertices, such as Vertex 1 of back surface=OFFICE_OPEN_0_0_0_WALL_1, is in front of receiving surface=OFFICE_OPEN_0_0_0_WALL_2
   **   ~~~   **    (Dot Product indicator=            582.6056)
   **   ~~~   **    Check surface geometry; if OK, use Solar Distribution = FullExterior instead. Use Output:Diagnostics, DisplayExtraWarnings; for more details.
   ** Severe  ** Problem in interior solar distribution calculation (CHKBKS)
   **   ~~~   **    Solar Distribution = FullInteriorExterior will not work in Zone=OFFICE_OPEN_0_0_0
   **   ~~~   **    because one or more of vertices, such as Vertex 2 of back surface=OFFICE_OPEN_0_0_0_WALL_3, is in front of receiving surface=OFFICE_OPEN_0_0_0_WALL_2
   **   ~~~   **    (Dot Product indicator=            572.8455)
   **   ~~~   **    Check surface geometry; if OK, use Solar Distribution = FullExterior instead. Use Output:Diagnostics, DisplayExtraWarnings; for more details.
   ** Severe  ** Problem in interior solar distribution calculation (CHKBKS)
   **   ~~~   **    Solar Distribution = FullInteriorExterior will not work in Zone=OFFICE_OPEN_0_0_0
   **   ~~~   **    because one or more of vertices, such as Vertex 1 of back surface=OFFICE_OPEN_0_0_0_WALL_4, is in front of receiving surface=OFFICE_OPEN_0_0_0_WALL_2
   **   ~~~   **    (Dot Product indicator=            572.8455)
   **   ~~~   **    Check surface geometry; if OK, use Solar Distribution = FullExterior instead. Use Output:Diagnostics, DisplayExtraWarnings; for more details.
   ** Severe  ** Problem in interior solar distribution calculation (CHKBKS)
   **   ~~~   **    Solar Distribution = FullInteriorExterior will not work in Zone=OFFICE_OPEN_0_0_0
   **   ~~~   **    because one or more of vertices, such as Vertex 1 of back surface=OFFICE_OPEN_0_0_0_FLOOR, is in front of receiving surface=OFFICE_OPEN_0_0_0_WALL_2
   **   ~~~   **    (Dot Product indicator=            582.6056)
   **   ~~~   **    Check surface geometry; if OK, use Solar Distribution = FullExterior instead. Use Output:Diagnostics, DisplayExtraWarnings; for more details.
   ** Severe  ** Problem in interior solar distribution calculation (CHKBKS)
   **   ~~~   **    Solar Distribution = FullInteriorExterior will not work in Zone=OFFICE_OPEN_0_0_0
   **   ~~~   **    because one or more of vertices, such as Vertex 1 of back surface=OFFICE_OPEN_0_0_0_CEILING, is in front of receiving surface=OFFICE_OPEN_0_0_0_WALL_2
   **   ~~~   **    (Dot Product indicator=            572.8455)
   **   ~~~   **    Check surface geometry; if OK, use Solar Distribution = FullExterior instead. Use Output:Diagnostics, DisplayExtraWarnings; for more details.
   ** Severe  ** Problem in interior solar distribution calculation (CHKBKS)
   **   ~~~   **    Solar Distribution = FullInteriorExterior will not work in Zone=OFFICE_OPEN_0_0_0
   **   ~~~   **    because one or more of vertices, such as Vertex 1 of back surface=OFFICE_OPEN_0_0_0_WINDOW_1, is in front of receiving surface=OFFICE_OPEN_0_0_0_WALL_2
   **   ~~~   **    (Dot Product indicator=            495.2401)
   **   ~~~   **    Check surface geometry; if OK, use Solar Distribution = FullExterior instead. Use Output:Diagnostics, DisplayExtraWarnings; for more details.
   ** Severe  ** Problem in interior solar distribution calculation (CHKBKS)
   **   ~~~   **    Solar Distribution = FullInteriorExterior will not work in Zone=OFFICE_OPEN_0_0_0
   **   ~~~   **    because one or more of vertices, such as Vertex 1 of back surface=OFFICE_OPEN_0_0_0_WINDOW_3, is in front of receiving surface=OFFICE_OPEN_0_0_0_WALL_2
   **   ~~~   **    (Dot Product indicator=             85.9267)
   **   ~~~   **    Check surface geometry; if OK, use Solar Distribution = FullExterior instead. Use Output:Diagnostics, DisplayExtraWarnings; for more details.
   ** Severe  ** Problem in interior solar distribution calculation (CHKBKS)
   **   ~~~   **    Solar Distribution = FullInteriorExterior will not work in Zone=OFFICE_OPEN_0_0_0
   **   ~~~   **    because one or more of vertices, such as Vertex 1 of back surface=OFFICE_OPEN_0_0_0_WINDOW_4, is in front of receiving surface=OFFICE_OPEN_0_0_0_WALL_2
   **   ~~~   **    (Dot Product indicator=            575.4797)
[...]
   *************
   *************  ** Warning ** CalcDoe2DXCoil: Coil:Cooling:DX:SingleSpeed="STORAGE_2_2_2_Z38_COOLINGCOILDX" - Full load outlet temperature indicates a possibility of frost/freeze error continues. Outlet air temperature statistics follow:
   *************  **   ~~~   **   This error occurred 1562 total times;
   *************  **   ~~~   **   during Warmup 0 times;
   *************  **   ~~~   **   during Sizing 0 times.
   *************  **   ~~~   **   Max=-30.594300  Min=-44.460892
   *************
   *************  ** Warning ** CalcDoe2DXCoil: Coil:Cooling:DX:SingleSpeed="STORAGE_4_1_2_Z61_COOLINGCOILDX" - Full load outlet temperature indicates a possibility of frost/freeze error continues. Outlet air temperature statistics follow:
   *************  **   ~~~   **   This error occurred 1486 total times;
   *************  **   ~~~   **   during Warmup 0 times;
   *************  **   ~~~   **   during Sizing 0 times.
   *************  **   ~~~   **   Max=-30.599452  Min=-42.839070
   *************
   *************  ** Warning ** CalcDoe2DXCoil: Coil:Cooling:DX:SingleSpeed="STORAGE_6_2_2_Z89_COOLINGCOILDX" - Air volume flow rate per watt of rated total cooling capacity is out of range error continues...
   *************  **   ~~~   **   This error occurred 4234 total times;
   *************  **   ~~~   **   during Warmup 0 times;
   *************  **   ~~~   **   during Sizing 0 times.
   *************  **   ~~~   **   Max=0.000010  Min=0.000010
   *************
   *************  ** Warning ** CalcDoe2DXCoil: Coil:Cooling:DX:SingleSpeed="STORAGE_6_2_2_Z89_COOLINGCOILDX" - Full load outlet temperature indicates a possibility of frost/freeze error continues. Outlet air temperature statistics follow:
   *************  **   ~~~   **   This error occurred 1496 total times;
   *************  **   ~~~   **   during Warmup 0 times;
   *************  **   ~~~   **   during Sizing 0 times.
   *************  **   ~~~   **   Max=-30.600373  Min=-43.835381
   *************
   *************  ** Warning ** CalcDoe2DXCoil: Coil:Cooling:DX:SingleSpeed="STORAGE_5_1_2_Z73_COOLINGCOILDX" - Air volume flow rate per watt of rated total cooling capacity is out of range error continues...
   *************  **   ~~~   **   This error occurred 4254 total times;
   *************  **   ~~~   **   during Warmup 0 times;
   *************  **   ~~~   **   during Sizing 0 times.
   *************  **   ~~~   **   Max=0.000010  Min=0.000010
   *************
   *************  ** Warning ** CalcDoe2DXCoil: Coil:Cooling:DX:SingleSpeed="STORAGE_5_1_2_Z73_COOLINGCOILDX" - Full load outlet temperature indicates a possibility of frost/freeze error continues. Outlet air temperature statistics follow:
   *************  **   ~~~   **   This error occurred 1507 total times;
   *************  **   ~~~   **   during Warmup 0 times;
   *************  **   ~~~   **   during Sizing 0 times.
   *************  **   ~~~   **   Max=-30.602521  Min=-42.813457
   *************
   *************  ** Warning ** CalcDoe2DXCoil: Coil:Cooling:DX:SingleSpeed="STORAGE_0_2_2_Z13_COOLINGCOILDX" - Air volume flow rate per watt of rated total cooling capacity is out of range error continues...
   *************  **   ~~~   **   This error occurred 4160 total times;
   *************  **   ~~~   **   during Warmup 0 times;
   *************  **   ~~~   **   during Sizing 0 times.
   *************  **   ~~~   **   Max=0.000010  Min=0.000010
   *************
   *************  ** Warning ** CalcDoe2DXCoil: Coil:Cooling:DX:SingleSpeed="STORAGE_2_1_2_Z35_COOLINGCOILDX" - Air volume flow rate per watt of rated total cooling capacity is out of range error continues...
   *************  **   ~~~   **   This error occurred 4582 total times;
   *************  **   ~~~   **   during Warmup 0 times;
   *************  **   ~~~   **   during Sizing 0 times.
   *************  **   ~~~   **   Max=0.000010  Min=0.000010
   *************
   *************  ** Warning ** CalcDoe2DXCoil: Coil:Cooling:DX:SingleSpeed="STORAGE_2_1_2_Z35_COOLINGCOILDX" - Full load outlet temperature indicates a possibility of frost/freeze error continues. Outlet air temperature statistics follow:
   *************  **   ~~~   **   This error occurred 1627 total times;
   *************  **   ~~~   **   during Warmup 0 times;
   *************  **   ~~~   **   during Sizing 0 times.
   *************  **   ~~~   **   Max=-30.584107  Min=-42.994634
   *************
   *************  ** Warning ** CalcDoe2DXCoil: Coil:Cooling:DX:SingleSpeed="STORAGE_1_2_2_Z25_COOLINGCOILDX" - Air volume flow rate per watt of rated total cooling capacity is out of range error continues...
   *************  **   ~~~   **   This error occurred 3838 total times;
   *************  **   ~~~   **   during Warmup 0 times;
   *************  **   ~~~   **   during Sizing 0 times.
   *************  **   ~~~   **   Max=0.000010  Min=0.000010
   *************
   *************  ** Warning ** CalcDoe2DXCoil: Coil:Cooling:DX:SingleSpeed="STORAGE_3_1_2_Z48_COOLINGCOILDX" - Air volume flow rate per watt of rated total cooling capacity is out of range error continues...
   *************  **   ~~~   **   This error occurred 4622 total times;
   *************  **   ~~~   **   during Warmup 0 times;
   *************  **   ~~~   **   during Sizing 0 times.
   *************  **   ~~~   **   Max=0.000010  Min=0.000010
   *************
   *************  ** Warning ** CalcDoe2DXCoil: Coil:Cooling:DX:SingleSpeed="STORAGE_0_2_2_Z13_COOLINGCOILDX" - Full load outlet temperature indicates a possibility of frost/freeze error continues. Outlet air temperature statistics follow:
   *************  **   ~~~   **   This error occurred 1475 total times;
   *************  **   ~~~   **   during Warmup 0 times;
   *************  **   ~~~   **   during Sizing 0 times.
   *************  **   ~~~   **   Max=-30.598226  Min=-43.513999
   *************
   *************  ** Warning ** CalcDoe2DXCoil: Coil:Cooling:DX:SingleSpeed="STORAGE_1_2_2_Z25_COOLINGCOILDX" - Full load outlet temperature indicates a possibility of frost/freeze error continues. Outlet air temperature statistics follow:
   *************  **   ~~~   **   This error occurred 1353 total times;
   *************  **   ~~~   **   during Warmup 0 times;
   *************  **   ~~~   **   during Sizing 0 times.
   *************  **   ~~~   **   Max=-30.587199  Min=-43.518493
   *************
   *************  ** Warning ** CalcDoe2DXCoil: Coil:Cooling:DX:SingleSpeed="STORAGE_3_1_2_Z48_COOLINGCOILDX" - Full load outlet temperature indicates a possibility of frost/freeze error continues. Outlet air temperature statistics follow:
   *************  **   ~~~   **   This error occurred 1639 total times;
   *************  **   ~~~   **   during Warmup 0 times;
   *************  **   ~~~   **   during Sizing 0 times.
   *************  **   ~~~   **   Max=-30.593011  Min=-42.930178
   *************
   *************  ** Warning ** CalcDoe2DXCoil: Coil:Cooling:DX:SingleSpeed="STORAGE_1_1_2_Z22_COOLINGCOILDX" - Air volume flow rate per watt of rated total cooling capacity is out of range error continues...
   *************  **   ~~~   **   This error occurred 4660 total times;
   *************  **   ~~~   **   during Warmup 0 times;
   *************  **   ~~~   **   during Sizing 0 times.
   *************  **   ~~~   **   Max=0.000010  Min=0.000010
   *************
   *************  ** Warning ** CalcDoe2DXCoil: Coil:Cooling:DX:SingleSpeed="STORAGE_1_1_2_Z22_COOLINGCOILDX" - Full load outlet temperature indicates a possibility of frost/freeze error continues. Outlet air temperature statistics follow:
   *************  **   ~~~   **   This error occurred 1654 total times;
   *************  **   ~~~   **   during Warmup 0 times;
   *************  **   ~~~   **   during Sizing 0 times.
   *************  **   ~~~   **   Max=-30.597479  Min=-42.831992
   *************
   *************  ** Warning ** CalcDoe2DXCoil: Coil:Cooling:DX:SingleSpeed="STORAGE_0_0_2_Z7_COOLINGCOILDX" - Air volume flow rate per watt of rated total cooling capacity is out of range error continues...
   *************  **   ~~~   **   This error occurred 4678 total times;
   *************  **   ~~~   **   during Warmup 0 times;
   *************  **   ~~~   **   during Sizing 0 times.
   *************  **   ~~~   **   Max=0.000010  Min=0.000010
   *************
   *************  ** Warning ** CalcDoe2DXCoil: Coil:Cooling:DX:SingleSpeed="STORAGE_0_1_2_Z10_COOLINGCOILDX" - Air volume flow rate per watt of rated total cooling capacity is out of range error continues...
   *************  **   ~~~   **   This error occurred 4286 total times;
   *************  **   ~~~   **   during Warmup 0 times;
   *************  **   ~~~   **   during Sizing 0 times.
   *************  **   ~~~   **   Max=0.000010  Min=0.000010
   *************
   *************  ** Warning ** CalcDoe2DXCoil: Coil:Cooling:DX:SingleSpeed="STORAGE_1_0_2_Z19_COOLINGCOILDX" - Air volume flow rate per watt of rated total cooling capacity is out of range error continues...
   *************  **   ~~~   **   This error occurred 4048 total times;
   *************  **   ~~~   **   during Warmup 0 times;
   *************  **   ~~~   **   during Sizing 0 times.
   *************  **   ~~~   **   Max=0.000010  Min=0.000010
   *************
   *************  ** Warning ** CalcDoe2DXCoil: Coil:Cooling:DX:SingleSpeed="STORAGE_2_0_2_Z32_COOLINGCOILDX" - Air volume flow rate per watt of rated total cooling capacity is out of range error continues...
   *************  **   ~~~   **   This error occurred 4380 total times;
   *************  **   ~~~   **   during Warmup 0 times;
   *************  **   ~~~   **   during Sizing 0 times.
   *************  **   ~~~   **   Max=0.000010  Min=0.000010
   *************
   *************  ** Warning ** CalcDoe2DXCoil: Coil:Cooling:DX:SingleSpeed="STORAGE_3_0_2_Z45_COOLINGCOILDX" - Air volume flow rate per watt of rated total cooling capacity is out of range error continues...
   *************  **   ~~~   **   This error occurred 2964 total times;
   *************  **   ~~~   **   during Warmup 0 times;
   *************  **   ~~~   **   during Sizing 0 times.
   *************  **   ~~~   **   Max=0.000010  Min=0.000010
   *************
   *************  ** Warning ** CalcDoe2DXCoil: Coil:Cooling:DX:SingleSpeed="STORAGE_4_0_2_Z58_COOLINGCOILDX" - Air volume flow rate per watt of rated total cooling capacity is out of range error continues...
   *************  **   ~~~   **   This error occurred 2912 total times;
   *************  **   ~~~   **   during Warmup 0 times;
   *************  **   ~~~   **   during Sizing 0 times.
   *************  **   ~~~   **   Max=0.000010  Min=0.000010
   *************
   *************  ** Warning ** CalcDoe2DXCoil: Coil:Cooling:DX:SingleSpeed="STORAGE_5_0_2_Z70_COOLINGCOILDX" - Air volume flow rate per watt of rated total cooling capacity is out of range error continues...
   *************  **   ~~~   **   This error occurred 2944 total times;
   *************  **   ~~~   **   during Warmup 0 times;
   *************  **   ~~~   **   during Sizing 0 times.
   *************  **   ~~~   **   Max=0.000010  Min=0.000010
   *************
   *************  ** Warning ** CalcDoe2DXCoil: Coil:Cooling:DX:SingleSpeed="STORAGE_6_0_2_Z83_COOLINGCOILDX" - Air volume flow rate per watt of rated total cooling capacity is out of range error continues...
   *************  **   ~~~   **   This error occurred 3040 total times;
   *************  **   ~~~   **   during Warmup 0 times;
   *************  **   ~~~   **   during Sizing 0 times.
   *************  **   ~~~   **   Max=0.000010  Min=0.000010
   *************
   *************  ** Warning ** CalcDoe2DXCoil: Coil:Cooling:DX:SingleSpeed="STORAGE_6_1_2_Z86_COOLINGCOILDX" - Air volume flow rate per watt of rated total cooling capacity is out of range error continues...
   *************  **   ~~~   **   This error occurred 4412 total times;
   *************  **   ~~~   **   during Warmup 0 times;
   *************  **   ~~~   **   during Sizing 0 times.
   *************  **   ~~~   **   Max=0.000010  Min=0.000010
   *************
   *************  ** Warning ** CalcDoe2DXCoil: Coil:Cooling:DX:SingleSpeed="STORAGE_7_0_2_Z96_COOLINGCOILDX" - Air volume flow rate per watt of rated total cooling capacity is out of range error continues...
   *************  **   ~~~   **   This error occurred 2702 total times;
   *************  **   ~~~   **   during Warmup 0 times;
   *************  **   ~~~   **   during Sizing 0 times.
   *************  **   ~~~   **   Max=0.000010  Min=0.000010
   *************
   *************  ** Warning ** CalcDoe2DXCoil: Coil:Cooling:DX:SingleSpeed="STORAGE_7_1_2_Z99_COOLINGCOILDX" - Air volume flow rate per watt of rated total cooling capacity is out of range error continues...
   *************  **   ~~~   **   This error occurred 4114 total times;
   *************  **   ~~~   **   during Warmup 0 times;
   *************  **   ~~~   **   during Sizing 0 times.
   *************  **   ~~~   **   Max=0.000010  Min=0.000010
   *************
   *************  ** Warning ** CalcDoe2DXCoil: Coil:Cooling:DX:SingleSpeed="STORAGE_7_2_2_Z102_COOLINGCOILDX" - Air volume flow rate per watt of rated total cooling capacity is out of range error continues...
   *************  **   ~~~   **   This error occurred 4360 total times;
   *************  **   ~~~   **   during Warmup 0 times;
   *************  **   ~~~   **   during Sizing 0 times.
   *************  **   ~~~   **   Max=0.000010  Min=0.000010
   *************
   *************  ** Warning ** CalcDoe2DXCoil: Coil:Cooling:DX:SingleSpeed="STORAGE_0_0_2_Z7_COOLINGCOILDX" - Full load outlet temperature indicates a possibility of frost/freeze error continues. Outlet air temperature statistics follow:
   *************  **   ~~~   **   This error occurred 1661 total times;
   *************  **   ~~~   **   during Warmup 0 times;
   *************  **   ~~~   **   during Sizing 0 times.
   *************  **   ~~~   **   Max=-30.576579  Min=-43.539001
   *************
   *************  ** Warning ** CalcDoe2DXCoil: Coil:Cooling:DX:SingleSpeed="STORAGE_0_1_2_Z10_COOLINGCOILDX" - Full load outlet temperature indicates a possibility of frost/freeze error continues. Outlet air temperature statistics follow:
   *************  **   ~~~   **   This error occurred 1524 total times;
   *************  **   ~~~   **   during Warmup 0 times;
   *************  **   ~~~   **   during Sizing 0 times.
   *************  **   ~~~   **   Max=-30.596921  Min=-42.930077
   *************
   *************  ** Warning ** CalcDoe2DXCoil: Coil:Cooling:DX:SingleSpeed="STORAGE_1_0_2_Z19_COOLINGCOILDX" - Full load outlet temperature indicates a possibility of frost/freeze error continues. Outlet air temperature statistics follow:
   *************  **   ~~~   **   This error occurred 1440 total times;
   *************  **   ~~~   **   during Warmup 0 times;
   *************  **   ~~~   **   during Sizing 0 times.
   *************  **   ~~~   **   Max=-30.575280  Min=-42.978821
   *************
   *************  ** Warning ** CalcDoe2DXCoil: Coil:Cooling:DX:SingleSpeed="STORAGE_2_0_2_Z32_COOLINGCOILDX" - Full load outlet temperature indicates a possibility of frost/freeze error continues. Outlet air temperature statistics follow:
   *************  **   ~~~   **   This error occurred 1552 total times;
   *************  **   ~~~   **   during Warmup 0 times;
   *************  **   ~~~   **   during Sizing 0 times.
   *************  **   ~~~   **   Max=-30.577589  Min=-43.284368
   *************
   *************  ** Warning ** CalcDoe2DXCoil: Coil:Cooling:DX:SingleSpeed="STORAGE_3_0_2_Z45_COOLINGCOILDX" - Full load outlet temperature indicates a possibility of frost/freeze error continues. Outlet air temperature statistics follow:
   *************  **   ~~~   **   This error occurred 1057 total times;
   *************  **   ~~~   **   during Warmup 0 times;
   *************  **   ~~~   **   during Sizing 0 times.
   *************  **   ~~~   **   Max=-30.581281  Min=-42.705964
   *************
   *************  ** Warning ** CalcDoe2DXCoil: Coil:Cooling:DX:SingleSpeed="STORAGE_4_0_2_Z58_COOLINGCOILDX" - Full load outlet temperature indicates a possibility of frost/freeze error continues. Outlet air temperature statistics follow:
   *************  **   ~~~   **   This error occurred 1038 total times;
   *************  **   ~~~   **   during Warmup 0 times;
   *************  **   ~~~   **   during Sizing 0 times.
   *************  **   ~~~   **   Max=-30.581556  Min=-42.927329
   *************
   *************  ** Warning ** CalcDoe2DXCoil: Coil:Cooling:DX:SingleSpeed="STORAGE_5_0_2_Z70_COOLINGCOILDX" - Full load outlet temperature indicates a possibility of frost/freeze error continues. Outlet air temperature statistics follow:
   *************  **   ~~~   **   This error occurred 1050 total times;
   *************  **   ~~~   **   during Warmup 0 times;
   *************  **   ~~~   **   during Sizing 0 times.
   *************  **   ~~~   **   Max=-30.587758  Min=-42.964540
   *************
   *************  ** Warning ** CalcDoe2DXCoil: Coil:Cooling:DX:SingleSpeed="STORAGE_6_0_2_Z83_COOLINGCOILDX" - Full load outlet temperature indicates a possibility of frost/freeze error continues. Outlet air temperature statistics follow:
   *************  **   ~~~   **   This error occurred 1082 total times;
   *************  **   ~~~   **   during Warmup 0 times;
   *************  **   ~~~   **   during Sizing 0 times.
   *************  **   ~~~   **   Max=-30.585384  Min=-42.962176
   *************
   *************  ** Warning ** CalcDoe2DXCoil: Coil:Cooling:DX:SingleSpeed="STORAGE_6_1_2_Z86_COOLINGCOILDX" - Full load outlet temperature indicates a possibility of frost/freeze error continues. Outlet air temperature statistics follow:
   *************  **   ~~~   **   This error occurred 1564 total times;
   *************  **   ~~~   **   during Warmup 0 times;
   *************  **   ~~~   **   during Sizing 0 times.
   *************  **   ~~~   **   Max=-30.595820  Min=-42.821645
   *************
   *************  ** Warning ** CalcDoe2DXCoil: Coil:Cooling:DX:SingleSpeed="STORAGE_7_0_2_Z96_COOLINGCOILDX" - Full load outlet temperature indicates a possibility of frost/freeze error continues. Outlet air temperature statistics follow:
   *************  **   ~~~   **   This error occurred 961 total times;
   *************  **   ~~~   **   during Warmup 0 times;
   *************  **   ~~~   **   during Sizing 0 times.
   *************  **   ~~~   **   Max=-30.583433  Min=-42.835013
   *************
   *************  ** Warning ** CalcDoe2DXCoil: Coil:Cooling:DX:SingleSpeed="STORAGE_7_1_2_Z99_COOLINGCOILDX" - Full load outlet temperature indicates a possibility of frost/freeze error continues. Outlet air temperature statistics follow:
   *************  **   ~~~   **   This error occurred 1461 total times;
   *************  **   ~~~   **   during Warmup 0 times;
   *************  **   ~~~   **   during Sizing 0 times.
   *************  **   ~~~   **   Max=-30.600085  Min=-43.448861
   *************
   *************  ** Warning ** CalcDoe2DXCoil: Coil:Cooling:DX:SingleSpeed="STORAGE_7_2_2_Z102_COOLINGCOILDX" - Full load outlet temperature indicates a possibility of frost/freeze error continues. Outlet air temperature statistics follow:
   *************  **   ~~~   **   This error occurred 1544 total times;
   *************  **   ~~~   **   during Warmup 0 times;
   *************  **   ~~~   **   during Sizing 0 times.
   *************  **   ~~~   **   Max=-30.596290  Min=-45.370843
   *************
   ************* EnergyPlus Warmup Error Summary. During Warmup: 0 Warning; 0 Severe Errors.
   ************* EnergyPlus Sizing Error Summary. During Sizing: 0 Warning; 0 Severe Errors.
   ************* EnergyPlus Completed Successfully-- 2439566 Warning; 3240 Severe Errors; Elapsed Time=00hr 06min 16.36sec
