Program Version,EnergyPlus, Version 24.2.0-94a887817b, YMD=2025.11.02 22:34
! This file shows details about the branches, nodes, and other
! elements of the flow connections.
! This file is intended for use in "debugging" potential problems
! that may also be detected by the program, but may be more easily
! identified by "eye".
! This file is also intended to support software which draws a
! schematic diagram of the HVAC system.
! ===============================================================
! #Nodes,<Number of Unique Nodes>
 #Nodes,1397
! <Node>,<NodeNumber>,<Node Name>,<Node Fluid Type>,<# Times Node Referenced After Definition>
 Node,1,LOBBY_0_Z1_ADUOUTLET,Air,4
 Node,2,CONFERENCE_0_Z2_ADUOUTLET,Air,4
 Node,3,BREAK_ROOM_0_Z3_ADUOUTLET,Air,4
 Node,4,MECHANICAL_0_Z4_ADUOUTLET,Air,4
 Node,5,OFFICE_OPEN_0_0_0_Z5_ADUOUTLET,Air,4
 Node,6,OFFICE_PRIVATE_0_0_1_Z6_ADUOUTLET,Air,4
 Node,7,STORAGE_0_0_2_Z7_ADUOUTLET,Air,4
 Node,8,OFFICE_OPEN_0_1_0_Z8_ADUOUTLET,Air,4
 Node,9,OFFICE_PRIVATE_0_1_1_Z9_ADUOUTLET,Air,4
 Node,10,STORAGE_0_1_2_Z10_ADUOUTLET,Air,4
 Node,11,OFFICE_OPEN_0_2_0_Z11_ADUOUTLET,Air,4
 Node,12,OFFICE_PRIVATE_0_2_1_Z12_ADUOUTLET,Air,4
 Node,13,STORAGE_0_2_2_Z13_ADUOUTLET,Air,4
 Node,14,LOBBY_1_Z14_ADUOUTLET,Air,4
 Node,15,CONFERENCE_1_Z15_ADUOUTLET,Air,4
 Node,16,MECHANICAL_1_Z16_ADUOUTLET,Air,4
 Node,17,OFFICE_OPEN_1_0_0_Z17_ADUOUTLET,Air,4
 Node,18,OFFICE_PRIVATE_1_0_1_Z18_ADUOUTLET,Air,4
 Node,19,STORAGE_1_0_2_Z19_ADUOUTLET,Air,4
 Node,20,OFFICE_OPEN_1_1_0_Z20_ADUOUTLET,Air,4
 Node,21,OFFICE_PRIVATE_1_1_1_Z21_ADUOUTLET,Air,4
 Node,22,STORAGE_1_1_2_Z22_ADUOUTLET,Air,4
 Node,23,OFFICE_OPEN_1_2_0_Z23_ADUOUTLET,Air,4
 Node,24,OFFICE_PRIVATE_1_2_1_Z24_ADUOUTLET,Air,4
 Node,25,STORAGE_1_2_2_Z25_ADUOUTLET,Air,4
 Node,26,LOBBY_2_Z26_ADUOUTLET,Air,4
 Node,27,CONFERENCE_2_Z27_ADUOUTLET,Air,4
 Node,28,BREAK_ROOM_2_Z28_ADUOUTLET,Air,4
 Node,29,MECHANICAL_2_Z29_ADUOUTLET,Air,4
 Node,30,OFFICE_OPEN_2_0_0_Z30_ADUOUTLET,Air,4
 Node,31,OFFICE_PRIVATE_2_0_1_Z31_ADUOUTLET,Air,4
 Node,32,STORAGE_2_0_2_Z32_ADUOUTLET,Air,4
 Node,33,OFFICE_OPEN_2_1_0_Z33_ADUOUTLET,Air,4
 Node,34,OFFICE_PRIVATE_2_1_1_Z34_ADUOUTLET,Air,4
 Node,35,STORAGE_2_1_2_Z35_ADUOUTLET,Air,4
 Node,36,OFFICE_OPEN_2_2_0_Z36_ADUOUTLET,Air,4
 Node,37,OFFICE_PRIVATE_2_2_1_Z37_ADUOUTLET,Air,4
 Node,38,STORAGE_2_2_2_Z38_ADUOUTLET,Air,4
 Node,39,LOBBY_3_Z39_ADUOUTLET,Air,4
 Node,40,CONFERENCE_3_Z40_ADUOUTLET,Air,4
 Node,41,BREAK_ROOM_3_Z41_ADUOUTLET,Air,4
 Node,42,MECHANICAL_3_Z42_ADUOUTLET,Air,4
 Node,43,OFFICE_OPEN_3_0_0_Z43_ADUOUTLET,Air,4
 Node,44,OFFICE_PRIVATE_3_0_1_Z44_ADUOUTLET,Air,4
 Node,45,STORAGE_3_0_2_Z45_ADUOUTLET,Air,4
 Node,46,OFFICE_OPEN_3_1_0_Z46_ADUOUTLET,Air,4
 Node,47,OFFICE_PRIVATE_3_1_1_Z47_ADUOUTLET,Air,4
 Node,48,STORAGE_3_1_2_Z48_ADUOUTLET,Air,4
 Node,49,OFFICE_OPEN_3_2_0_Z49_ADUOUTLET,Air,4
 Node,50,OFFICE_PRIVATE_3_2_1_Z50_ADUOUTLET,Air,4
 Node,51,STORAGE_3_2_2_Z51_ADUOUTLET,Air,4
 Node,52,LOBBY_4_Z52_ADUOUTLET,Air,4
 Node,53,CONFERENCE_4_Z53_ADUOUTLET,Air,4
 Node,54,BREAK_ROOM_4_Z54_ADUOUTLET,Air,4
 Node,55,MECHANICAL_4_Z55_ADUOUTLET,Air,4
 Node,56,OFFICE_OPEN_4_0_0_Z56_ADUOUTLET,Air,4
 Node,57,OFFICE_PRIVATE_4_0_1_Z57_ADUOUTLET,Air,4
 Node,58,STORAGE_4_0_2_Z58_ADUOUTLET,Air,4
 Node,59,OFFICE_OPEN_4_1_0_Z59_ADUOUTLET,Air,4
 Node,60,OFFICE_PRIVATE_4_1_1_Z60_ADUOUTLET,Air,4
 Node,61,STORAGE_4_1_2_Z61_ADUOUTLET,Air,4
 Node,62,OFFICE_OPEN_4_2_0_Z62_ADUOUTLET,Air,4
 Node,63,OFFICE_PRIVATE_4_2_1_Z63_ADUOUTLET,Air,4
 Node,64,STORAGE_4_2_2_Z64_ADUOUTLET,Air,4
 Node,65,LOBBY_5_Z65_ADUOUTLET,Air,4
 Node,66,CONFERENCE_5_Z66_ADUOUTLET,Air,4
 Node,67,BREAK_ROOM_5_Z67_ADUOUTLET,Air,4
 Node,68,OFFICE_OPEN_5_0_0_Z68_ADUOUTLET,Air,4
 Node,69,OFFICE_PRIVATE_5_0_1_Z69_ADUOUTLET,Air,4
 Node,70,STORAGE_5_0_2_Z70_ADUOUTLET,Air,4
 Node,71,OFFICE_OPEN_5_1_0_Z71_ADUOUTLET,Air,4
 Node,72,OFFICE_PRIVATE_5_1_1_Z72_ADUOUTLET,Air,4
 Node,73,STORAGE_5_1_2_Z73_ADUOUTLET,Air,4
 Node,74,OFFICE_OPEN_5_2_0_Z74_ADUOUTLET,Air,4
 Node,75,OFFICE_PRIVATE_5_2_1_Z75_ADUOUTLET,Air,4
 Node,76,STORAGE_5_2_2_Z76_ADUOUTLET,Air,4
 Node,77,LOBBY_6_Z77_ADUOUTLET,Air,4
 Node,78,CONFERENCE_6_Z78_ADUOUTLET,Air,4
 Node,79,BREAK_ROOM_6_Z79_ADUOUTLET,Air,4
 Node,80,MECHANICAL_6_Z80_ADUOUTLET,Air,4
 Node,81,OFFICE_OPEN_6_0_0_Z81_ADUOUTLET,Air,4
 Node,82,OFFICE_PRIVATE_6_0_1_Z82_ADUOUTLET,Air,4
 Node,83,STORAGE_6_0_2_Z83_ADUOUTLET,Air,4
 Node,84,OFFICE_OPEN_6_1_0_Z84_ADUOUTLET,Air,4
 Node,85,OFFICE_PRIVATE_6_1_1_Z85_ADUOUTLET,Air,4
 Node,86,STORAGE_6_1_2_Z86_ADUOUTLET,Air,4
 Node,87,OFFICE_OPEN_6_2_0_Z87_ADUOUTLET,Air,4
 Node,88,OFFICE_PRIVATE_6_2_1_Z88_ADUOUTLET,Air,4
 Node,89,STORAGE_6_2_2_Z89_ADUOUTLET,Air,4
 Node,90,LOBBY_7_Z90_ADUOUTLET,Air,4
 Node,91,CONFERENCE_7_Z91_ADUOUTLET,Air,4
 Node,92,BREAK_ROOM_7_Z92_ADUOUTLET,Air,4
 Node,93,MECHANICAL_7_Z93_ADUOUTLET,Air,4
 Node,94,OFFICE_OPEN_7_0_0_Z94_ADUOUTLET,Air,4
 Node,95,OFFICE_PRIVATE_7_0_1_Z95_ADUOUTLET,Air,4
 Node,96,STORAGE_7_0_2_Z96_ADUOUTLET,Air,4
 Node,97,OFFICE_OPEN_7_1_0_Z97_ADUOUTLET,Air,4
 Node,98,OFFICE_PRIVATE_7_1_1_Z98_ADUOUTLET,Air,4
 Node,99,STORAGE_7_1_2_Z99_ADUOUTLET,Air,4
 Node,100,OFFICE_OPEN_7_2_0_Z100_ADUOUTLET,Air,4
 Node,101,OFFICE_PRIVATE_7_2_1_Z101_ADUOUTLET,Air,4
 Node,102,STORAGE_7_2_2_Z102_ADUOUTLET,Air,4
 Node,103,LOBBY_8_Z103_ADUOUTLET,Air,4
 Node,104,CONFERENCE_8_Z104_ADUOUTLET,Air,4
 Node,105,BREAK_ROOM_8_Z105_ADUOUTLET,Air,4
 Node,106,MECHANICAL_8_Z106_ADUOUTLET,Air,4
 Node,107,OFFICE_OPEN_8_0_0_Z107_ADUOUTLET,Air,4
 Node,108,OFFICE_PRIVATE_8_0_1_Z108_ADUOUTLET,Air,4
 Node,109,STORAGE_8_0_2_Z109_ADUOUTLET,Air,4
 Node,110,OFFICE_OPEN_8_1_0_Z110_ADUOUTLET,Air,4
 Node,111,OFFICE_PRIVATE_8_1_1_Z111_ADUOUTLET,Air,4
 Node,112,STORAGE_8_1_2_Z112_ADUOUTLET,Air,4
 Node,113,OFFICE_OPEN_8_2_0_Z113_ADUOUTLET,Air,4
 Node,114,OFFICE_PRIVATE_8_2_1_Z114_ADUOUTLET,Air,4
 Node,115,STORAGE_8_2_2_Z115_ADUOUTLET,Air,4
 Node,116,LOBBY_9_Z116_ADUOUTLET,Air,4
 Node,117,CONFERENCE_9_Z117_ADUOUTLET,Air,4
 Node,118,BREAK_ROOM_9_Z118_ADUOUTLET,Air,4
 Node,119,OFFICE_OPEN_9_0_0_Z119_ADUOUTLET,Air,4
 Node,120,OFFICE_PRIVATE_9_0_1_Z120_ADUOUTLET,Air,4
 Node,121,STORAGE_9_0_2_Z121_ADUOUTLET,Air,4
 Node,122,OFFICE_OPEN_9_1_0_Z122_ADUOUTLET,Air,4
 Node,123,OFFICE_PRIVATE_9_1_1_Z123_ADUOUTLET,Air,4
 Node,124,STORAGE_9_1_2_Z124_ADUOUTLET,Air,4
 Node,125,OFFICE_OPEN_9_2_0_Z125_ADUOUTLET,Air,4
 Node,126,OFFICE_PRIVATE_9_2_1_Z126_ADUOUTLET,Air,4
 Node,127,STORAGE_9_2_2_Z127_ADUOUTLET,Air,4
 Node,128,LOBBY_0_Z1_SUPPLYINLET,Air,3
 Node,129,LOBBY_0_Z1_COOLC-HEATCNODE,Air,6
 Node,130,LOBBY_0_Z1_HEATC-FANNODE,Air,5
 Node,131,LOBBY_0_Z1_SUPPLYEQUIPMENTOUTLETNODE,Air,3
 Node,132,CONFERENCE_0_Z2_SUPPLYINLET,Air,3
 Node,133,CONFERENCE_0_Z2_COOLC-HEATCNODE,Air,6
 Node,134,CONFERENCE_0_Z2_HEATC-FANNODE,Air,5
 Node,135,CONFERENCE_0_Z2_SUPPLYEQUIPMENTOUTLETNODE,Air,3
 Node,136,BREAK_ROOM_0_Z3_SUPPLYINLET,Air,3
 Node,137,BREAK_ROOM_0_Z3_COOLC-HEATCNODE,Air,6
 Node,138,BREAK_ROOM_0_Z3_HEATC-FANNODE,Air,5
 Node,139,BREAK_ROOM_0_Z3_SUPPLYEQUIPMENTOUTLETNODE,Air,3
 Node,140,MECHANICAL_0_Z4_SUPPLYINLET,Air,3
 Node,141,MECHANICAL_0_Z4_COOLC-HEATCNODE,Air,6
 Node,142,MECHANICAL_0_Z4_HEATC-FANNODE,Air,5
 Node,143,MECHANICAL_0_Z4_SUPPLYEQUIPMENTOUTLETNODE,Air,3
 Node,144,OFFICE_OPEN_0_0_0_Z5_SUPPLYINLET,Air,3
 Node,145,OFFICE_OPEN_0_0_0_Z5_COOLC-HEATCNODE,Air,6
 Node,146,OFFICE_OPEN_0_0_0_Z5_HEATC-FANNODE,Air,5
 Node,147,OFFICE_OPEN_0_0_0_Z5_SUPPLYEQUIPMENTOUTLETNODE,Air,3
 Node,148,OFFICE_PRIVATE_0_0_1_Z6_SUPPLYINLET,Air,3
 Node,149,OFFICE_PRIVATE_0_0_1_Z6_COOLC-HEATCNODE,Air,6
 Node,150,OFFICE_PRIVATE_0_0_1_Z6_HEATC-FANNODE,Air,5
 Node,151,OFFICE_PRIVATE_0_0_1_Z6_SUPPLYEQUIPMENTOUTLETNODE,Air,3
 Node,152,STORAGE_0_0_2_Z7_SUPPLYINLET,Air,3
 Node,153,STORAGE_0_0_2_Z7_COOLC-HEATCNODE,Air,6
 Node,154,STORAGE_0_0_2_Z7_HEATC-FANNODE,Air,5
 Node,155,STORAGE_0_0_2_Z7_SUPPLYEQUIPMENTOUTLETNODE,Air,3
 Node,156,OFFICE_OPEN_0_1_0_Z8_SUPPLYINLET,Air,3
 Node,157,OFFICE_OPEN_0_1_0_Z8_COOLC-HEATCNODE,Air,6
 Node,158,OFFICE_OPEN_0_1_0_Z8_HEATC-FANNODE,Air,5
 Node,159,OFFICE_OPEN_0_1_0_Z8_SUPPLYEQUIPMENTOUTLETNODE,Air,3
 Node,160,OFFICE_PRIVATE_0_1_1_Z9_SUPPLYINLET,Air,3
 Node,161,OFFICE_PRIVATE_0_1_1_Z9_COOLC-HEATCNODE,Air,6
 Node,162,OFFICE_PRIVATE_0_1_1_Z9_HEATC-FANNODE,Air,5
 Node,163,OFFICE_PRIVATE_0_1_1_Z9_SUPPLYEQUIPMENTOUTLETNODE,Air,3
 Node,164,STORAGE_0_1_2_Z10_SUPPLYINLET,Air,3
 Node,165,STORAGE_0_1_2_Z10_COOLC-HEATCNODE,Air,6
 Node,166,STORAGE_0_1_2_Z10_HEATC-FANNODE,Air,5
 Node,167,STORAGE_0_1_2_Z10_SUPPLYEQUIPMENTOUTLETNODE,Air,3
 Node,168,OFFICE_OPEN_0_2_0_Z11_SUPPLYINLET,Air,3
 Node,169,OFFICE_OPEN_0_2_0_Z11_COOLC-HEATCNODE,Air,6
 Node,170,OFFICE_OPEN_0_2_0_Z11_HEATC-FANNODE,Air,5
 Node,171,OFFICE_OPEN_0_2_0_Z11_SUPPLYEQUIPMENTOUTLETNODE,Air,3
 Node,172,OFFICE_PRIVATE_0_2_1_Z12_SUPPLYINLET,Air,3
 Node,173,OFFICE_PRIVATE_0_2_1_Z12_COOLC-HEATCNODE,Air,6
 Node,174,OFFICE_PRIVATE_0_2_1_Z12_HEATC-FANNODE,Air,5
 Node,175,OFFICE_PRIVATE_0_2_1_Z12_SUPPLYEQUIPMENTOUTLETNODE,Air,3
 Node,176,STORAGE_0_2_2_Z13_SUPPLYINLET,Air,3
 Node,177,STORAGE_0_2_2_Z13_COOLC-HEATCNODE,Air,6
 Node,178,STORAGE_0_2_2_Z13_HEATC-FANNODE,Air,5
 Node,179,STORAGE_0_2_2_Z13_SUPPLYEQUIPMENTOUTLETNODE,Air,3
 Node,180,LOBBY_1_Z14_SUPPLYINLET,Air,3
 Node,181,LOBBY_1_Z14_COOLC-HEATCNODE,Air,6
 Node,182,LOBBY_1_Z14_HEATC-FANNODE,Air,5
 Node,183,LOBBY_1_Z14_SUPPLYEQUIPMENTOUTLETNODE,Air,3
 Node,184,CONFERENCE_1_Z15_SUPPLYINLET,Air,3
 Node,185,CONFERENCE_1_Z15_COOLC-HEATCNODE,Air,6
 Node,186,CONFERENCE_1_Z15_HEATC-FANNODE,Air,5
 Node,187,CONFERENCE_1_Z15_SUPPLYEQUIPMENTOUTLETNODE,Air,3
 Node,188,MECHANICAL_1_Z16_SUPPLYINLET,Air,3
 Node,189,MECHANICAL_1_Z16_COOLC-HEATCNODE,Air,6
 Node,190,MECHANICAL_1_Z16_HEATC-FANNODE,Air,5
 Node,191,MECHANICAL_1_Z16_SUPPLYEQUIPMENTOUTLETNODE,Air,3
 Node,192,OFFICE_OPEN_1_0_0_Z17_SUPPLYINLET,Air,3
 Node,193,OFFICE_OPEN_1_0_0_Z17_COOLC-HEATCNODE,Air,6
 Node,194,OFFICE_OPEN_1_0_0_Z17_HEATC-FANNODE,Air,5
 Node,195,OFFICE_OPEN_1_0_0_Z17_SUPPLYEQUIPMENTOUTLETNODE,Air,3
 Node,196,OFFICE_PRIVATE_1_0_1_Z18_SUPPLYINLET,Air,3
 Node,197,OFFICE_PRIVATE_1_0_1_Z18_COOLC-HEATCNODE,Air,6
 Node,198,OFFICE_PRIVATE_1_0_1_Z18_HEATC-FANNODE,Air,5
 Node,199,OFFICE_PRIVATE_1_0_1_Z18_SUPPLYEQUIPMENTOUTLETNODE,Air,3
 Node,200,STORAGE_1_0_2_Z19_SUPPLYINLET,Air,3
 Node,201,STORAGE_1_0_2_Z19_COOLC-HEATCNODE,Air,6
 Node,202,STORAGE_1_0_2_Z19_HEATC-FANNODE,Air,5
 Node,203,STORAGE_1_0_2_Z19_SUPPLYEQUIPMENTOUTLETNODE,Air,3
 Node,204,OFFICE_OPEN_1_1_0_Z20_SUPPLYINLET,Air,3
 Node,205,OFFICE_OPEN_1_1_0_Z20_COOLC-HEATCNODE,Air,6
 Node,206,OFFICE_OPEN_1_1_0_Z20_HEATC-FANNODE,Air,5
 Node,207,OFFICE_OPEN_1_1_0_Z20_SUPPLYEQUIPMENTOUTLETNODE,Air,3
 Node,208,OFFICE_PRIVATE_1_1_1_Z21_SUPPLYINLET,Air,3
 Node,209,OFFICE_PRIVATE_1_1_1_Z21_COOLC-HEATCNODE,Air,6
 Node,210,OFFICE_PRIVATE_1_1_1_Z21_HEATC-FANNODE,Air,5
 Node,211,OFFICE_PRIVATE_1_1_1_Z21_SUPPLYEQUIPMENTOUTLETNODE,Air,3
 Node,212,STORAGE_1_1_2_Z22_SUPPLYINLET,Air,3
 Node,213,STORAGE_1_1_2_Z22_COOLC-HEATCNODE,Air,6
 Node,214,STORAGE_1_1_2_Z22_HEATC-FANNODE,Air,5
 Node,215,STORAGE_1_1_2_Z22_SUPPLYEQUIPMENTOUTLETNODE,Air,3
 Node,216,OFFICE_OPEN_1_2_0_Z23_SUPPLYINLET,Air,3
 Node,217,OFFICE_OPEN_1_2_0_Z23_COOLC-HEATCNODE,Air,6
 Node,218,OFFICE_OPEN_1_2_0_Z23_HEATC-FANNODE,Air,5
 Node,219,OFFICE_OPEN_1_2_0_Z23_SUPPLYEQUIPMENTOUTLETNODE,Air,3
 Node,220,OFFICE_PRIVATE_1_2_1_Z24_SUPPLYINLET,Air,3
 Node,221,OFFICE_PRIVATE_1_2_1_Z24_COOLC-HEATCNODE,Air,6
 Node,222,OFFICE_PRIVATE_1_2_1_Z24_HEATC-FANNODE,Air,5
 Node,223,OFFICE_PRIVATE_1_2_1_Z24_SUPPLYEQUIPMENTOUTLETNODE,Air,3
 Node,224,STORAGE_1_2_2_Z25_SUPPLYINLET,Air,3
 Node,225,STORAGE_1_2_2_Z25_COOLC-HEATCNODE,Air,6
 Node,226,STORAGE_1_2_2_Z25_HEATC-FANNODE,Air,5
 Node,227,STORAGE_1_2_2_Z25_SUPPLYEQUIPMENTOUTLETNODE,Air,3
 Node,228,LOBBY_2_Z26_SUPPLYINLET,Air,3
 Node,229,LOBBY_2_Z26_COOLC-HEATCNODE,Air,6
 Node,230,LOBBY_2_Z26_HEATC-FANNODE,Air,5
 Node,231,LOBBY_2_Z26_SUPPLYEQUIPMENTOUTLETNODE,Air,3
 Node,232,CONFERENCE_2_Z27_SUPPLYINLET,Air,3
 Node,233,CONFERENCE_2_Z27_COOLC-HEATCNODE,Air,6
 Node,234,CONFERENCE_2_Z27_HEATC-FANNODE,Air,5
 Node,235,CONFERENCE_2_Z27_SUPPLYEQUIPMENTOUTLETNODE,Air,3
 Node,236,BREAK_ROOM_2_Z28_SUPPLYINLET,Air,3
 Node,237,BREAK_ROOM_2_Z28_COOLC-HEATCNODE,Air,6
 Node,238,BREAK_ROOM_2_Z28_HEATC-FANNODE,Air,5
 Node,239,BREAK_ROOM_2_Z28_SUPPLYEQUIPMENTOUTLETNODE,Air,3
 Node,240,MECHANICAL_2_Z29_SUPPLYINLET,Air,3
 Node,241,MECHANICAL_2_Z29_COOLC-HEATCNODE,Air,6
 Node,242,MECHANICAL_2_Z29_HEATC-FANNODE,Air,5
 Node,243,MECHANICAL_2_Z29_SUPPLYEQUIPMENTOUTLETNODE,Air,3
 Node,244,OFFICE_OPEN_2_0_0_Z30_SUPPLYINLET,Air,3
 Node,245,OFFICE_OPEN_2_0_0_Z30_COOLC-HEATCNODE,Air,6
 Node,246,OFFICE_OPEN_2_0_0_Z30_HEATC-FANNODE,Air,5
 Node,247,OFFICE_OPEN_2_0_0_Z30_SUPPLYEQUIPMENTOUTLETNODE,Air,3
 Node,248,OFFICE_PRIVATE_2_0_1_Z31_SUPPLYINLET,Air,3
 Node,249,OFFICE_PRIVATE_2_0_1_Z31_COOLC-HEATCNODE,Air,6
 Node,250,OFFICE_PRIVATE_2_0_1_Z31_HEATC-FANNODE,Air,5
 Node,251,OFFICE_PRIVATE_2_0_1_Z31_SUPPLYEQUIPMENTOUTLETNODE,Air,3
 Node,252,STORAGE_2_0_2_Z32_SUPPLYINLET,Air,3
 Node,253,STORAGE_2_0_2_Z32_COOLC-HEATCNODE,Air,6
 Node,254,STORAGE_2_0_2_Z32_HEATC-FANNODE,Air,5
 Node,255,STORAGE_2_0_2_Z32_SUPPLYEQUIPMENTOUTLETNODE,Air,3
 Node,256,OFFICE_OPEN_2_1_0_Z33_SUPPLYINLET,Air,3
 Node,257,OFFICE_OPEN_2_1_0_Z33_COOLC-HEATCNODE,Air,6
 Node,258,OFFICE_OPEN_2_1_0_Z33_HEATC-FANNODE,Air,5
 Node,259,OFFICE_OPEN_2_1_0_Z33_SUPPLYEQUIPMENTOUTLETNODE,Air,3
 Node,260,OFFICE_PRIVATE_2_1_1_Z34_SUPPLYINLET,Air,3
 Node,261,OFFICE_PRIVATE_2_1_1_Z34_COOLC-HEATCNODE,Air,6
 Node,262,OFFICE_PRIVATE_2_1_1_Z34_HEATC-FANNODE,Air,5
 Node,263,OFFICE_PRIVATE_2_1_1_Z34_SUPPLYEQUIPMENTOUTLETNODE,Air,3
 Node,264,STORAGE_2_1_2_Z35_SUPPLYINLET,Air,3
 Node,265,STORAGE_2_1_2_Z35_COOLC-HEATCNODE,Air,6
 Node,266,STORAGE_2_1_2_Z35_HEATC-FANNODE,Air,5
 Node,267,STORAGE_2_1_2_Z35_SUPPLYEQUIPMENTOUTLETNODE,Air,3
 Node,268,OFFICE_OPEN_2_2_0_Z36_SUPPLYINLET,Air,3
 Node,269,OFFICE_OPEN_2_2_0_Z36_COOLC-HEATCNODE,Air,6
 Node,270,OFFICE_OPEN_2_2_0_Z36_HEATC-FANNODE,Air,5
 Node,271,OFFICE_OPEN_2_2_0_Z36_SUPPLYEQUIPMENTOUTLETNODE,Air,3
 Node,272,OFFICE_PRIVATE_2_2_1_Z37_SUPPLYINLET,Air,3
 Node,273,OFFICE_PRIVATE_2_2_1_Z37_COOLC-HEATCNODE,Air,6
 Node,274,OFFICE_PRIVATE_2_2_1_Z37_HEATC-FANNODE,Air,5
 Node,275,OFFICE_PRIVATE_2_2_1_Z37_SUPPLYEQUIPMENTOUTLETNODE,Air,3
 Node,276,STORAGE_2_2_2_Z38_SUPPLYINLET,Air,3
 Node,277,STORAGE_2_2_2_Z38_COOLC-HEATCNODE,Air,6
 Node,278,STORAGE_2_2_2_Z38_HEATC-FANNODE,Air,5
 Node,279,STORAGE_2_2_2_Z38_SUPPLYEQUIPMENTOUTLETNODE,Air,3
 Node,280,LOBBY_3_Z39_SUPPLYINLET,Air,3
 Node,281,LOBBY_3_Z39_COOLC-HEATCNODE,Air,6
 Node,282,LOBBY_3_Z39_HEATC-FANNODE,Air,5
 Node,283,LOBBY_3_Z39_SUPPLYEQUIPMENTOUTLETNODE,Air,3
 Node,284,CONFERENCE_3_Z40_SUPPLYINLET,Air,3
 Node,285,CONFERENCE_3_Z40_COOLC-HEATCNODE,Air,6
 Node,286,CONFERENCE_3_Z40_HEATC-FANNODE,Air,5
 Node,287,CONFERENCE_3_Z40_SUPPLYEQUIPMENTOUTLETNODE,Air,3
 Node,288,BREAK_ROOM_3_Z41_SUPPLYINLET,Air,3
 Node,289,BREAK_ROOM_3_Z41_COOLC-HEATCNODE,Air,6
 Node,290,BREAK_ROOM_3_Z41_HEATC-FANNODE,Air,5
 Node,291,BREAK_ROOM_3_Z41_SUPPLYEQUIPMENTOUTLETNODE,Air,3
 Node,292,MECHANICAL_3_Z42_SUPPLYINLET,Air,3
 Node,293,MECHANICAL_3_Z42_COOLC-HEATCNODE,Air,6
 Node,294,MECHANICAL_3_Z42_HEATC-FANNODE,Air,5
 Node,295,MECHANICAL_3_Z42_SUPPLYEQUIPMENTOUTLETNODE,Air,3
 Node,296,OFFICE_OPEN_3_0_0_Z43_SUPPLYINLET,Air,3
 Node,297,OFFICE_OPEN_3_0_0_Z43_COOLC-HEATCNODE,Air,6
 Node,298,OFFICE_OPEN_3_0_0_Z43_HEATC-FANNODE,Air,5
 Node,299,OFFICE_OPEN_3_0_0_Z43_SUPPLYEQUIPMENTOUTLETNODE,Air,3
 Node,300,OFFICE_PRIVATE_3_0_1_Z44_SUPPLYINLET,Air,3
 Node,301,OFFICE_PRIVATE_3_0_1_Z44_COOLC-HEATCNODE,Air,6
 Node,302,OFFICE_PRIVATE_3_0_1_Z44_HEATC-FANNODE,Air,5
 Node,303,OFFICE_PRIVATE_3_0_1_Z44_SUPPLYEQUIPMENTOUTLETNODE,Air,3
 Node,304,STORAGE_3_0_2_Z45_SUPPLYINLET,Air,3
 Node,305,STORAGE_3_0_2_Z45_COOLC-HEATCNODE,Air,6
 Node,306,STORAGE_3_0_2_Z45_HEATC-FANNODE,Air,5
 Node,307,STORAGE_3_0_2_Z45_SUPPLYEQUIPMENTOUTLETNODE,Air,3
 Node,308,OFFICE_OPEN_3_1_0_Z46_SUPPLYINLET,Air,3
 Node,309,OFFICE_OPEN_3_1_0_Z46_COOLC-HEATCNODE,Air,6
 Node,310,OFFICE_OPEN_3_1_0_Z46_HEATC-FANNODE,Air,5
 Node,311,OFFICE_OPEN_3_1_0_Z46_SUPPLYEQUIPMENTOUTLETNODE,Air,3
 Node,312,OFFICE_PRIVATE_3_1_1_Z47_SUPPLYINLET,Air,3
 Node,313,OFFICE_PRIVATE_3_1_1_Z47_COOLC-HEATCNODE,Air,6
 Node,314,OFFICE_PRIVATE_3_1_1_Z47_HEATC-FANNODE,Air,5
 Node,315,OFFICE_PRIVATE_3_1_1_Z47_SUPPLYEQUIPMENTOUTLETNODE,Air,3
 Node,316,STORAGE_3_1_2_Z48_SUPPLYINLET,Air,3
 Node,317,STORAGE_3_1_2_Z48_COOLC-HEATCNODE,Air,6
 Node,318,STORAGE_3_1_2_Z48_HEATC-FANNODE,Air,5
 Node,319,STORAGE_3_1_2_Z48_SUPPLYEQUIPMENTOUTLETNODE,Air,3
 Node,320,OFFICE_OPEN_3_2_0_Z49_SUPPLYINLET,Air,3
 Node,321,OFFICE_OPEN_3_2_0_Z49_COOLC-HEATCNODE,Air,6
 Node,322,OFFICE_OPEN_3_2_0_Z49_HEATC-FANNODE,Air,5
 Node,323,OFFICE_OPEN_3_2_0_Z49_SUPPLYEQUIPMENTOUTLETNODE,Air,3
 Node,324,OFFICE_PRIVATE_3_2_1_Z50_SUPPLYINLET,Air,3
 Node,325,OFFICE_PRIVATE_3_2_1_Z50_COOLC-HEATCNODE,Air,6
 Node,326,OFFICE_PRIVATE_3_2_1_Z50_HEATC-FANNODE,Air,5
 Node,327,OFFICE_PRIVATE_3_2_1_Z50_SUPPLYEQUIPMENTOUTLETNODE,Air,3
 Node,328,STORAGE_3_2_2_Z51_SUPPLYINLET,Air,3
 Node,329,STORAGE_3_2_2_Z51_COOLC-HEATCNODE,Air,6
 Node,330,STORAGE_3_2_2_Z51_HEATC-FANNODE,Air,5
 Node,331,STORAGE_3_2_2_Z51_SUPPLYEQUIPMENTOUTLETNODE,Air,3
 Node,332,LOBBY_4_Z52_SUPPLYINLET,Air,3
 Node,333,LOBBY_4_Z52_COOLC-HEATCNODE,Air,6
 Node,334,LOBBY_4_Z52_HEATC-FANNODE,Air,5
 Node,335,LOBBY_4_Z52_SUPPLYEQUIPMENTOUTLETNODE,Air,3
 Node,336,CONFERENCE_4_Z53_SUPPLYINLET,Air,3
 Node,337,CONFERENCE_4_Z53_COOLC-HEATCNODE,Air,6
 Node,338,CONFERENCE_4_Z53_HEATC-FANNODE,Air,5
 Node,339,CONFERENCE_4_Z53_SUPPLYEQUIPMENTOUTLETNODE,Air,3
 Node,340,BREAK_ROOM_4_Z54_SUPPLYINLET,Air,3
 Node,341,BREAK_ROOM_4_Z54_COOLC-HEATCNODE,Air,6
 Node,342,BREAK_ROOM_4_Z54_HEATC-FANNODE,Air,5
 Node,343,BREAK_ROOM_4_Z54_SUPPLYEQUIPMENTOUTLETNODE,Air,3
 Node,344,MECHANICAL_4_Z55_SUPPLYINLET,Air,3
 Node,345,MECHANICAL_4_Z55_COOLC-HEATCNODE,Air,6
 Node,346,MECHANICAL_4_Z55_HEATC-FANNODE,Air,5
 Node,347,MECHANICAL_4_Z55_SUPPLYEQUIPMENTOUTLETNODE,Air,3
 Node,348,OFFICE_OPEN_4_0_0_Z56_SUPPLYINLET,Air,3
 Node,349,OFFICE_OPEN_4_0_0_Z56_COOLC-HEATCNODE,Air,6
 Node,350,OFFICE_OPEN_4_0_0_Z56_HEATC-FANNODE,Air,5
 Node,351,OFFICE_OPEN_4_0_0_Z56_SUPPLYEQUIPMENTOUTLETNODE,Air,3
 Node,352,OFFICE_PRIVATE_4_0_1_Z57_SUPPLYINLET,Air,3
 Node,353,OFFICE_PRIVATE_4_0_1_Z57_COOLC-HEATCNODE,Air,6
 Node,354,OFFICE_PRIVATE_4_0_1_Z57_HEATC-FANNODE,Air,5
 Node,355,OFFICE_PRIVATE_4_0_1_Z57_SUPPLYEQUIPMENTOUTLETNODE,Air,3
 Node,356,STORAGE_4_0_2_Z58_SUPPLYINLET,Air,3
 Node,357,STORAGE_4_0_2_Z58_COOLC-HEATCNODE,Air,6
 Node,358,STORAGE_4_0_2_Z58_HEATC-FANNODE,Air,5
 Node,359,STORAGE_4_0_2_Z58_SUPPLYEQUIPMENTOUTLETNODE,Air,3
 Node,360,OFFICE_OPEN_4_1_0_Z59_SUPPLYINLET,Air,3
 Node,361,OFFICE_OPEN_4_1_0_Z59_COOLC-HEATCNODE,Air,6
 Node,362,OFFICE_OPEN_4_1_0_Z59_HEATC-FANNODE,Air,5
 Node,363,OFFICE_OPEN_4_1_0_Z59_SUPPLYEQUIPMENTOUTLETNODE,Air,3
 Node,364,OFFICE_PRIVATE_4_1_1_Z60_SUPPLYINLET,Air,3
 Node,365,OFFICE_PRIVATE_4_1_1_Z60_COOLC-HEATCNODE,Air,6
 Node,366,OFFICE_PRIVATE_4_1_1_Z60_HEATC-FANNODE,Air,5
 Node,367,OFFICE_PRIVATE_4_1_1_Z60_SUPPLYEQUIPMENTOUTLETNODE,Air,3
 Node,368,STORAGE_4_1_2_Z61_SUPPLYINLET,Air,3
 Node,369,STORAGE_4_1_2_Z61_COOLC-HEATCNODE,Air,6
 Node,370,STORAGE_4_1_2_Z61_HEATC-FANNODE,Air,5
 Node,371,STORAGE_4_1_2_Z61_SUPPLYEQUIPMENTOUTLETNODE,Air,3
 Node,372,OFFICE_OPEN_4_2_0_Z62_SUPPLYINLET,Air,3
 Node,373,OFFICE_OPEN_4_2_0_Z62_COOLC-HEATCNODE,Air,6
 Node,374,OFFICE_OPEN_4_2_0_Z62_HEATC-FANNODE,Air,5
 Node,375,OFFICE_OPEN_4_2_0_Z62_SUPPLYEQUIPMENTOUTLETNODE,Air,3
 Node,376,OFFICE_PRIVATE_4_2_1_Z63_SUPPLYINLET,Air,3
 Node,377,OFFICE_PRIVATE_4_2_1_Z63_COOLC-HEATCNODE,Air,6
 Node,378,OFFICE_PRIVATE_4_2_1_Z63_HEATC-FANNODE,Air,5
 Node,379,OFFICE_PRIVATE_4_2_1_Z63_SUPPLYEQUIPMENTOUTLETNODE,Air,3
 Node,380,STORAGE_4_2_2_Z64_SUPPLYINLET,Air,3
 Node,381,STORAGE_4_2_2_Z64_COOLC-HEATCNODE,Air,6
 Node,382,STORAGE_4_2_2_Z64_HEATC-FANNODE,Air,5
 Node,383,STORAGE_4_2_2_Z64_SUPPLYEQUIPMENTOUTLETNODE,Air,3
 Node,384,LOBBY_5_Z65_SUPPLYINLET,Air,3
 Node,385,LOBBY_5_Z65_COOLC-HEATCNODE,Air,6
 Node,386,LOBBY_5_Z65_HEATC-FANNODE,Air,5
 Node,387,LOBBY_5_Z65_SUPPLYEQUIPMENTOUTLETNODE,Air,3
 Node,388,CONFERENCE_5_Z66_SUPPLYINLET,Air,3
 Node,389,CONFERENCE_5_Z66_COOLC-HEATCNODE,Air,6
 Node,390,CONFERENCE_5_Z66_HEATC-FANNODE,Air,5
 Node,391,CONFERENCE_5_Z66_SUPPLYEQUIPMENTOUTLETNODE,Air,3
 Node,392,BREAK_ROOM_5_Z67_SUPPLYINLET,Air,3
 Node,393,BREAK_ROOM_5_Z67_COOLC-HEATCNODE,Air,6
 Node,394,BREAK_ROOM_5_Z67_HEATC-FANNODE,Air,5
 Node,395,BREAK_ROOM_5_Z67_SUPPLYEQUIPMENTOUTLETNODE,Air,3
 Node,396,OFFICE_OPEN_5_0_0_Z68_SUPPLYINLET,Air,3
 Node,397,OFFICE_OPEN_5_0_0_Z68_COOLC-HEATCNODE,Air,6
 Node,398,OFFICE_OPEN_5_0_0_Z68_HEATC-FANNODE,Air,5
 Node,399,OFFICE_OPEN_5_0_0_Z68_SUPPLYEQUIPMENTOUTLETNODE,Air,3
 Node,400,OFFICE_PRIVATE_5_0_1_Z69_SUPPLYINLET,Air,3
 Node,401,OFFICE_PRIVATE_5_0_1_Z69_COOLC-HEATCNODE,Air,6
 Node,402,OFFICE_PRIVATE_5_0_1_Z69_HEATC-FANNODE,Air,5
 Node,403,OFFICE_PRIVATE_5_0_1_Z69_SUPPLYEQUIPMENTOUTLETNODE,Air,3
 Node,404,STORAGE_5_0_2_Z70_SUPPLYINLET,Air,3
 Node,405,STORAGE_5_0_2_Z70_COOLC-HEATCNODE,Air,6
 Node,406,STORAGE_5_0_2_Z70_HEATC-FANNODE,Air,5
 Node,407,STORAGE_5_0_2_Z70_SUPPLYEQUIPMENTOUTLETNODE,Air,3
 Node,408,OFFICE_OPEN_5_1_0_Z71_SUPPLYINLET,Air,3
 Node,409,OFFICE_OPEN_5_1_0_Z71_COOLC-HEATCNODE,Air,6
 Node,410,OFFICE_OPEN_5_1_0_Z71_HEATC-FANNODE,Air,5
 Node,411,OFFICE_OPEN_5_1_0_Z71_SUPPLYEQUIPMENTOUTLETNODE,Air,3
 Node,412,OFFICE_PRIVATE_5_1_1_Z72_SUPPLYINLET,Air,3
 Node,413,OFFICE_PRIVATE_5_1_1_Z72_COOLC-HEATCNODE,Air,6
 Node,414,OFFICE_PRIVATE_5_1_1_Z72_HEATC-FANNODE,Air,5
 Node,415,OFFICE_PRIVATE_5_1_1_Z72_SUPPLYEQUIPMENTOUTLETNODE,Air,3
 Node,416,STORAGE_5_1_2_Z73_SUPPLYINLET,Air,3
 Node,417,STORAGE_5_1_2_Z73_COOLC-HEATCNODE,Air,6
 Node,418,STORAGE_5_1_2_Z73_HEATC-FANNODE,Air,5
 Node,419,STORAGE_5_1_2_Z73_SUPPLYEQUIPMENTOUTLETNODE,Air,3
 Node,420,OFFICE_OPEN_5_2_0_Z74_SUPPLYINLET,Air,3
 Node,421,OFFICE_OPEN_5_2_0_Z74_COOLC-HEATCNODE,Air,6
 Node,422,OFFICE_OPEN_5_2_0_Z74_HEATC-FANNODE,Air,5
 Node,423,OFFICE_OPEN_5_2_0_Z74_SUPPLYEQUIPMENTOUTLETNODE,Air,3
 Node,424,OFFICE_PRIVATE_5_2_1_Z75_SUPPLYINLET,Air,3
 Node,425,OFFICE_PRIVATE_5_2_1_Z75_COOLC-HEATCNODE,Air,6
 Node,426,OFFICE_PRIVATE_5_2_1_Z75_HEATC-FANNODE,Air,5
 Node,427,OFFICE_PRIVATE_5_2_1_Z75_SUPPLYEQUIPMENTOUTLETNODE,Air,3
 Node,428,STORAGE_5_2_2_Z76_SUPPLYINLET,Air,3
 Node,429,STORAGE_5_2_2_Z76_COOLC-HEATCNODE,Air,6
 Node,430,STORAGE_5_2_2_Z76_HEATC-FANNODE,Air,5
 Node,431,STORAGE_5_2_2_Z76_SUPPLYEQUIPMENTOUTLETNODE,Air,3
 Node,432,LOBBY_6_Z77_SUPPLYINLET,Air,3
 Node,433,LOBBY_6_Z77_COOLC-HEATCNODE,Air,6
 Node,434,LOBBY_6_Z77_HEATC-FANNODE,Air,5
 Node,435,LOBBY_6_Z77_SUPPLYEQUIPMENTOUTLETNODE,Air,3
 Node,436,CONFERENCE_6_Z78_SUPPLYINLET,Air,3
 Node,437,CONFERENCE_6_Z78_COOLC-HEATCNODE,Air,6
 Node,438,CONFERENCE_6_Z78_HEATC-FANNODE,Air,5
 Node,439,CONFERENCE_6_Z78_SUPPLYEQUIPMENTOUTLETNODE,Air,3
 Node,440,BREAK_ROOM_6_Z79_SUPPLYINLET,Air,3
 Node,441,BREAK_ROOM_6_Z79_COOLC-HEATCNODE,Air,6
 Node,442,BREAK_ROOM_6_Z79_HEATC-FANNODE,Air,5
 Node,443,BREAK_ROOM_6_Z79_SUPPLYEQUIPMENTOUTLETNODE,Air,3
 Node,444,MECHANICAL_6_Z80_SUPPLYINLET,Air,3
 Node,445,MECHANICAL_6_Z80_COOLC-HEATCNODE,Air,6
 Node,446,MECHANICAL_6_Z80_HEATC-FANNODE,Air,5
 Node,447,MECHANICAL_6_Z80_SUPPLYEQUIPMENTOUTLETNODE,Air,3
 Node,448,OFFICE_OPEN_6_0_0_Z81_SUPPLYINLET,Air,3
 Node,449,OFFICE_OPEN_6_0_0_Z81_COOLC-HEATCNODE,Air,6
 Node,450,OFFICE_OPEN_6_0_0_Z81_HEATC-FANNODE,Air,5
 Node,451,OFFICE_OPEN_6_0_0_Z81_SUPPLYEQUIPMENTOUTLETNODE,Air,3
 Node,452,OFFICE_PRIVATE_6_0_1_Z82_SUPPLYINLET,Air,3
 Node,453,OFFICE_PRIVATE_6_0_1_Z82_COOLC-HEATCNODE,Air,6
 Node,454,OFFICE_PRIVATE_6_0_1_Z82_HEATC-FANNODE,Air,5
 Node,455,OFFICE_PRIVATE_6_0_1_Z82_SUPPLYEQUIPMENTOUTLETNODE,Air,3
 Node,456,STORAGE_6_0_2_Z83_SUPPLYINLET,Air,3
 Node,457,STORAGE_6_0_2_Z83_COOLC-HEATCNODE,Air,6
 Node,458,STORAGE_6_0_2_Z83_HEATC-FANNODE,Air,5
 Node,459,STORAGE_6_0_2_Z83_SUPPLYEQUIPMENTOUTLETNODE,Air,3
 Node,460,OFFICE_OPEN_6_1_0_Z84_SUPPLYINLET,Air,3
 Node,461,OFFICE_OPEN_6_1_0_Z84_COOLC-HEATCNODE,Air,6
 Node,462,OFFICE_OPEN_6_1_0_Z84_HEATC-FANNODE,Air,5
 Node,463,OFFICE_OPEN_6_1_0_Z84_SUPPLYEQUIPMENTOUTLETNODE,Air,3
 Node,464,OFFICE_PRIVATE_6_1_1_Z85_SUPPLYINLET,Air,3
 Node,465,OFFICE_PRIVATE_6_1_1_Z85_COOLC-HEATCNODE,Air,6
 Node,466,OFFICE_PRIVATE_6_1_1_Z85_HEATC-FANNODE,Air,5
 Node,467,OFFICE_PRIVATE_6_1_1_Z85_SUPPLYEQUIPMENTOUTLETNODE,Air,3
 Node,468,STORAGE_6_1_2_Z86_SUPPLYINLET,Air,3
 Node,469,STORAGE_6_1_2_Z86_COOLC-HEATCNODE,Air,6
 Node,470,STORAGE_6_1_2_Z86_HEATC-FANNODE,Air,5
 Node,471,STORAGE_6_1_2_Z86_SUPPLYEQUIPMENTOUTLETNODE,Air,3
 Node,472,OFFICE_OPEN_6_2_0_Z87_SUPPLYINLET,Air,3
 Node,473,OFFICE_OPEN_6_2_0_Z87_COOLC-HEATCNODE,Air,6
 Node,474,OFFICE_OPEN_6_2_0_Z87_HEATC-FANNODE,Air,5
 Node,475,OFFICE_OPEN_6_2_0_Z87_SUPPLYEQUIPMENTOUTLETNODE,Air,3
 Node,476,OFFICE_PRIVATE_6_2_1_Z88_SUPPLYINLET,Air,3
 Node,477,OFFICE_PRIVATE_6_2_1_Z88_COOLC-HEATCNODE,Air,6
 Node,478,OFFICE_PRIVATE_6_2_1_Z88_HEATC-FANNODE,Air,5
 Node,479,OFFICE_PRIVATE_6_2_1_Z88_SUPPLYEQUIPMENTOUTLETNODE,Air,3
 Node,480,STORAGE_6_2_2_Z89_SUPPLYINLET,Air,3
 Node,481,STORAGE_6_2_2_Z89_COOLC-HEATCNODE,Air,6
 Node,482,STORAGE_6_2_2_Z89_HEATC-FANNODE,Air,5
 Node,483,STORAGE_6_2_2_Z89_SUPPLYEQUIPMENTOUTLETNODE,Air,3
 Node,484,LOBBY_7_Z90_SUPPLYINLET,Air,3
 Node,485,LOBBY_7_Z90_COOLC-HEATCNODE,Air,6
 Node,486,LOBBY_7_Z90_HEATC-FANNODE,Air,5
 Node,487,LOBBY_7_Z90_SUPPLYEQUIPMENTOUTLETNODE,Air,3
 Node,488,CONFERENCE_7_Z91_SUPPLYINLET,Air,3
 Node,489,CONFERENCE_7_Z91_COOLC-HEATCNODE,Air,6
 Node,490,CONFERENCE_7_Z91_HEATC-FANNODE,Air,5
 Node,491,CONFERENCE_7_Z91_SUPPLYEQUIPMENTOUTLETNODE,Air,3
 Node,492,BREAK_ROOM_7_Z92_SUPPLYINLET,Air,3
 Node,493,BREAK_ROOM_7_Z92_COOLC-HEATCNODE,Air,6
 Node,494,BREAK_ROOM_7_Z92_HEATC-FANNODE,Air,5
 Node,495,BREAK_ROOM_7_Z92_SUPPLYEQUIPMENTOUTLETNODE,Air,3
 Node,496,MECHANICAL_7_Z93_SUPPLYINLET,Air,3
 Node,497,MECHANICAL_7_Z93_COOLC-HEATCNODE,Air,6
 Node,498,MECHANICAL_7_Z93_HEATC-FANNODE,Air,5
 Node,499,MECHANICAL_7_Z93_SUPPLYEQUIPMENTOUTLETNODE,Air,3
 Node,500,OFFICE_OPEN_7_0_0_Z94_SUPPLYINLET,Air,3
 Node,501,OFFICE_OPEN_7_0_0_Z94_COOLC-HEATCNODE,Air,6
 Node,502,OFFICE_OPEN_7_0_0_Z94_HEATC-FANNODE,Air,5
 Node,503,OFFICE_OPEN_7_0_0_Z94_SUPPLYEQUIPMENTOUTLETNODE,Air,3
 Node,504,OFFICE_PRIVATE_7_0_1_Z95_SUPPLYINLET,Air,3
 Node,505,OFFICE_PRIVATE_7_0_1_Z95_COOLC-HEATCNODE,Air,6
 Node,506,OFFICE_PRIVATE_7_0_1_Z95_HEATC-FANNODE,Air,5
 Node,507,OFFICE_PRIVATE_7_0_1_Z95_SUPPLYEQUIPMENTOUTLETNODE,Air,3
 Node,508,STORAGE_7_0_2_Z96_SUPPLYINLET,Air,3
 Node,509,STORAGE_7_0_2_Z96_COOLC-HEATCNODE,Air,6
 Node,510,STORAGE_7_0_2_Z96_HEATC-FANNODE,Air,5
 Node,511,STORAGE_7_0_2_Z96_SUPPLYEQUIPMENTOUTLETNODE,Air,3
 Node,512,OFFICE_OPEN_7_1_0_Z97_SUPPLYINLET,Air,3
 Node,513,OFFICE_OPEN_7_1_0_Z97_COOLC-HEATCNODE,Air,6
 Node,514,OFFICE_OPEN_7_1_0_Z97_HEATC-FANNODE,Air,5
 Node,515,OFFICE_OPEN_7_1_0_Z97_SUPPLYEQUIPMENTOUTLETNODE,Air,3
 Node,516,OFFICE_PRIVATE_7_1_1_Z98_SUPPLYINLET,Air,3
 Node,517,OFFICE_PRIVATE_7_1_1_Z98_COOLC-HEATCNODE,Air,6
 Node,518,OFFICE_PRIVATE_7_1_1_Z98_HEATC-FANNODE,Air,5
 Node,519,OFFICE_PRIVATE_7_1_1_Z98_SUPPLYEQUIPMENTOUTLETNODE,Air,3
 Node,520,STORAGE_7_1_2_Z99_SUPPLYINLET,Air,3
 Node,521,STORAGE_7_1_2_Z99_COOLC-HEATCNODE,Air,6
 Node,522,STORAGE_7_1_2_Z99_HEATC-FANNODE,Air,5
 Node,523,STORAGE_7_1_2_Z99_SUPPLYEQUIPMENTOUTLETNODE,Air,3
 Node,524,OFFICE_OPEN_7_2_0_Z100_SUPPLYINLET,Air,3
 Node,525,OFFICE_OPEN_7_2_0_Z100_COOLC-HEATCNODE,Air,6
 Node,526,OFFICE_OPEN_7_2_0_Z100_HEATC-FANNODE,Air,5
 Node,527,OFFICE_OPEN_7_2_0_Z100_SUPPLYEQUIPMENTOUTLETNODE,Air,3
 Node,528,OFFICE_PRIVATE_7_2_1_Z101_SUPPLYINLET,Air,3
 Node,529,OFFICE_PRIVATE_7_2_1_Z101_COOLC-HEATCNODE,Air,6
 Node,530,OFFICE_PRIVATE_7_2_1_Z101_HEATC-FANNODE,Air,5
 Node,531,OFFICE_PRIVATE_7_2_1_Z101_SUPPLYEQUIPMENTOUTLETNODE,Air,3
 Node,532,STORAGE_7_2_2_Z102_SUPPLYINLET,Air,3
 Node,533,STORAGE_7_2_2_Z102_COOLC-HEATCNODE,Air,6
 Node,534,STORAGE_7_2_2_Z102_HEATC-FANNODE,Air,5
 Node,535,STORAGE_7_2_2_Z102_SUPPLYEQUIPMENTOUTLETNODE,Air,3
 Node,536,LOBBY_8_Z103_SUPPLYINLET,Air,3
 Node,537,LOBBY_8_Z103_COOLC-HEATCNODE,Air,6
 Node,538,LOBBY_8_Z103_HEATC-FANNODE,Air,5
 Node,539,LOBBY_8_Z103_SUPPLYEQUIPMENTOUTLETNODE,Air,3
 Node,540,CONFERENCE_8_Z104_SUPPLYINLET,Air,3
 Node,541,CONFERENCE_8_Z104_COOLC-HEATCNODE,Air,6
 Node,542,CONFERENCE_8_Z104_HEATC-FANNODE,Air,5
 Node,543,CONFERENCE_8_Z104_SUPPLYEQUIPMENTOUTLETNODE,Air,3
 Node,544,BREAK_ROOM_8_Z105_SUPPLYINLET,Air,3
 Node,545,BREAK_ROOM_8_Z105_COOLC-HEATCNODE,Air,6
 Node,546,BREAK_ROOM_8_Z105_HEATC-FANNODE,Air,5
 Node,547,BREAK_ROOM_8_Z105_SUPPLYEQUIPMENTOUTLETNODE,Air,3
 Node,548,MECHANICAL_8_Z106_SUPPLYINLET,Air,3
 Node,549,MECHANICAL_8_Z106_COOLC-HEATCNODE,Air,6
 Node,550,MECHANICAL_8_Z106_HEATC-FANNODE,Air,5
 Node,551,MECHANICAL_8_Z106_SUPPLYEQUIPMENTOUTLETNODE,Air,3
 Node,552,OFFICE_OPEN_8_0_0_Z107_SUPPLYINLET,Air,3
 Node,553,OFFICE_OPEN_8_0_0_Z107_COOLC-HEATCNODE,Air,6
 Node,554,OFFICE_OPEN_8_0_0_Z107_HEATC-FANNODE,Air,5
 Node,555,OFFICE_OPEN_8_0_0_Z107_SUPPLYEQUIPMENTOUTLETNODE,Air,3
 Node,556,OFFICE_PRIVATE_8_0_1_Z108_SUPPLYINLET,Air,3
 Node,557,OFFICE_PRIVATE_8_0_1_Z108_COOLC-HEATCNODE,Air,6
 Node,558,OFFICE_PRIVATE_8_0_1_Z108_HEATC-FANNODE,Air,5
 Node,559,OFFICE_PRIVATE_8_0_1_Z108_SUPPLYEQUIPMENTOUTLETNODE,Air,3
 Node,560,STORAGE_8_0_2_Z109_SUPPLYINLET,Air,3
 Node,561,STORAGE_8_0_2_Z109_COOLC-HEATCNODE,Air,6
 Node,562,STORAGE_8_0_2_Z109_HEATC-FANNODE,Air,5
 Node,563,STORAGE_8_0_2_Z109_SUPPLYEQUIPMENTOUTLETNODE,Air,3
 Node,564,OFFICE_OPEN_8_1_0_Z110_SUPPLYINLET,Air,3
 Node,565,OFFICE_OPEN_8_1_0_Z110_COOLC-HEATCNODE,Air,6
 Node,566,OFFICE_OPEN_8_1_0_Z110_HEATC-FANNODE,Air,5
 Node,567,OFFICE_OPEN_8_1_0_Z110_SUPPLYEQUIPMENTOUTLETNODE,Air,3
 Node,568,OFFICE_PRIVATE_8_1_1_Z111_SUPPLYINLET,Air,3
 Node,569,OFFICE_PRIVATE_8_1_1_Z111_COOLC-HEATCNODE,Air,6
 Node,570,OFFICE_PRIVATE_8_1_1_Z111_HEATC-FANNODE,Air,5
 Node,571,OFFICE_PRIVATE_8_1_1_Z111_SUPPLYEQUIPMENTOUTLETNODE,Air,3
 Node,572,STORAGE_8_1_2_Z112_SUPPLYINLET,Air,3
 Node,573,STORAGE_8_1_2_Z112_COOLC-HEATCNODE,Air,6
 Node,574,STORAGE_8_1_2_Z112_HEATC-FANNODE,Air,5
 Node,575,STORAGE_8_1_2_Z112_SUPPLYEQUIPMENTOUTLETNODE,Air,3
 Node,576,OFFICE_OPEN_8_2_0_Z113_SUPPLYINLET,Air,3
 Node,577,OFFICE_OPEN_8_2_0_Z113_COOLC-HEATCNODE,Air,6
 Node,578,OFFICE_OPEN_8_2_0_Z113_HEATC-FANNODE,Air,5
 Node,579,OFFICE_OPEN_8_2_0_Z113_SUPPLYEQUIPMENTOUTLETNODE,Air,3
 Node,580,OFFICE_PRIVATE_8_2_1_Z114_SUPPLYINLET,Air,3
 Node,581,OFFICE_PRIVATE_8_2_1_Z114_COOLC-HEATCNODE,Air,6
 Node,582,OFFICE_PRIVATE_8_2_1_Z114_HEATC-FANNODE,Air,5
 Node,583,OFFICE_PRIVATE_8_2_1_Z114_SUPPLYEQUIPMENTOUTLETNODE,Air,3
 Node,584,STORAGE_8_2_2_Z115_SUPPLYINLET,Air,3
 Node,585,STORAGE_8_2_2_Z115_COOLC-HEATCNODE,Air,6
 Node,586,STORAGE_8_2_2_Z115_HEATC-FANNODE,Air,5
 Node,587,STORAGE_8_2_2_Z115_SUPPLYEQUIPMENTOUTLETNODE,Air,3
 Node,588,LOBBY_9_Z116_SUPPLYINLET,Air,3
 Node,589,LOBBY_9_Z116_COOLC-HEATCNODE,Air,6
 Node,590,LOBBY_9_Z116_HEATC-FANNODE,Air,5
 Node,591,LOBBY_9_Z116_SUPPLYEQUIPMENTOUTLETNODE,Air,3
 Node,592,CONFERENCE_9_Z117_SUPPLYINLET,Air,3
 Node,593,CONFERENCE_9_Z117_COOLC-HEATCNODE,Air,6
 Node,594,CONFERENCE_9_Z117_HEATC-FANNODE,Air,5
 Node,595,CONFERENCE_9_Z117_SUPPLYEQUIPMENTOUTLETNODE,Air,3
 Node,596,BREAK_ROOM_9_Z118_SUPPLYINLET,Air,3
 Node,597,BREAK_ROOM_9_Z118_COOLC-HEATCNODE,Air,6
 Node,598,BREAK_ROOM_9_Z118_HEATC-FANNODE,Air,5
 Node,599,BREAK_ROOM_9_Z118_SUPPLYEQUIPMENTOUTLETNODE,Air,3
 Node,600,OFFICE_OPEN_9_0_0_Z119_SUPPLYINLET,Air,3
 Node,601,OFFICE_OPEN_9_0_0_Z119_COOLC-HEATCNODE,Air,6
 Node,602,OFFICE_OPEN_9_0_0_Z119_HEATC-FANNODE,Air,5
 Node,603,OFFICE_OPEN_9_0_0_Z119_SUPPLYEQUIPMENTOUTLETNODE,Air,3
 Node,604,OFFICE_PRIVATE_9_0_1_Z120_SUPPLYINLET,Air,3
 Node,605,OFFICE_PRIVATE_9_0_1_Z120_COOLC-HEATCNODE,Air,6
 Node,606,OFFICE_PRIVATE_9_0_1_Z120_HEATC-FANNODE,Air,5
 Node,607,OFFICE_PRIVATE_9_0_1_Z120_SUPPLYEQUIPMENTOUTLETNODE,Air,3
 Node,608,STORAGE_9_0_2_Z121_SUPPLYINLET,Air,3
 Node,609,STORAGE_9_0_2_Z121_COOLC-HEATCNODE,Air,6
 Node,610,STORAGE_9_0_2_Z121_HEATC-FANNODE,Air,5
 Node,611,STORAGE_9_0_2_Z121_SUPPLYEQUIPMENTOUTLETNODE,Air,3
 Node,612,OFFICE_OPEN_9_1_0_Z122_SUPPLYINLET,Air,3
 Node,613,OFFICE_OPEN_9_1_0_Z122_COOLC-HEATCNODE,Air,6
 Node,614,OFFICE_OPEN_9_1_0_Z122_HEATC-FANNODE,Air,5
 Node,615,OFFICE_OPEN_9_1_0_Z122_SUPPLYEQUIPMENTOUTLETNODE,Air,3
 Node,616,OFFICE_PRIVATE_9_1_1_Z123_SUPPLYINLET,Air,3
 Node,617,OFFICE_PRIVATE_9_1_1_Z123_COOLC-HEATCNODE,Air,6
 Node,618,OFFICE_PRIVATE_9_1_1_Z123_HEATC-FANNODE,Air,5
 Node,619,OFFICE_PRIVATE_9_1_1_Z123_SUPPLYEQUIPMENTOUTLETNODE,Air,3
 Node,620,STORAGE_9_1_2_Z124_SUPPLYINLET,Air,3
 Node,621,STORAGE_9_1_2_Z124_COOLC-HEATCNODE,Air,6
 Node,622,STORAGE_9_1_2_Z124_HEATC-FANNODE,Air,5
 Node,623,STORAGE_9_1_2_Z124_SUPPLYEQUIPMENTOUTLETNODE,Air,3
 Node,624,OFFICE_OPEN_9_2_0_Z125_SUPPLYINLET,Air,3
 Node,625,OFFICE_OPEN_9_2_0_Z125_COOLC-HEATCNODE,Air,6
 Node,626,OFFICE_OPEN_9_2_0_Z125_HEATC-FANNODE,Air,5
 Node,627,OFFICE_OPEN_9_2_0_Z125_SUPPLYEQUIPMENTOUTLETNODE,Air,3
 Node,628,OFFICE_PRIVATE_9_2_1_Z126_SUPPLYINLET,Air,3
 Node,629,OFFICE_PRIVATE_9_2_1_Z126_COOLC-HEATCNODE,Air,6
 Node,630,OFFICE_PRIVATE_9_2_1_Z126_HEATC-FANNODE,Air,5
 Node,631,OFFICE_PRIVATE_9_2_1_Z126_SUPPLYEQUIPMENTOUTLETNODE,Air,3
 Node,632,STORAGE_9_2_2_Z127_SUPPLYINLET,Air,3
 Node,633,STORAGE_9_2_2_Z127_COOLC-HEATCNODE,Air,6
 Node,634,STORAGE_9_2_2_Z127_HEATC-FANNODE,Air,5
 Node,635,STORAGE_9_2_2_Z127_SUPPLYEQUIPMENTOUTLETNODE,Air,3
 Node,636,LOBBY_0 AIR NODE,Air,0
 Node,637,LOBBY_0_Z1_RETURNAIR,Air,1
 Node,638,CONFERENCE_0 AIR NODE,Air,0
 Node,639,CONFERENCE_0_Z2_RETURNAIR,Air,1
 Node,640,BREAK_ROOM_0 AIR NODE,Air,0
 Node,641,BREAK_ROOM_0_Z3_RETURNAIR,Air,1
 Node,642,MECHANICAL_0 AIR NODE,Air,0
 Node,643,MECHANICAL_0_Z4_RETURNAIR,Air,1
 Node,644,OFFICE_OPEN_0_0_0 AIR NODE,Air,0
 Node,645,OFFICE_OPEN_0_0_0_Z5_RETURNAIR,Air,1
 Node,646,OFFICE_PRIVATE_0_0_1 AIR NODE,Air,0
 Node,647,OFFICE_PRIVATE_0_0_1_Z6_RETURNAIR,Air,1
 Node,648,STORAGE_0_0_2 AIR NODE,Air,0
 Node,649,STORAGE_0_0_2_Z7_RETURNAIR,Air,1
 Node,650,OFFICE_OPEN_0_1_0 AIR NODE,Air,0
 Node,651,OFFICE_OPEN_0_1_0_Z8_RETURNAIR,Air,1
 Node,652,OFFICE_PRIVATE_0_1_1 AIR NODE,Air,0
 Node,653,OFFICE_PRIVATE_0_1_1_Z9_RETURNAIR,Air,1
 Node,654,STORAGE_0_1_2 AIR NODE,Air,0
 Node,655,STORAGE_0_1_2_Z10_RETURNAIR,Air,1
 Node,656,OFFICE_OPEN_0_2_0 AIR NODE,Air,0
 Node,657,OFFICE_OPEN_0_2_0_Z11_RETURNAIR,Air,1
 Node,658,OFFICE_PRIVATE_0_2_1 AIR NODE,Air,0
 Node,659,OFFICE_PRIVATE_0_2_1_Z12_RETURNAIR,Air,1
 Node,660,STORAGE_0_2_2 AIR NODE,Air,0
 Node,661,STORAGE_0_2_2_Z13_RETURNAIR,Air,1
 Node,662,LOBBY_1 AIR NODE,Air,0
 Node,663,LOBBY_1_Z14_RETURNAIR,Air,1
 Node,664,CONFERENCE_1 AIR NODE,Air,0
 Node,665,CONFERENCE_1_Z15_RETURNAIR,Air,1
 Node,666,MECHANICAL_1 AIR NODE,Air,0
 Node,667,MECHANICAL_1_Z16_RETURNAIR,Air,1
 Node,668,OFFICE_OPEN_1_0_0 AIR NODE,Air,0
 Node,669,OFFICE_OPEN_1_0_0_Z17_RETURNAIR,Air,1
 Node,670,OFFICE_PRIVATE_1_0_1 AIR NODE,Air,0
 Node,671,OFFICE_PRIVATE_1_0_1_Z18_RETURNAIR,Air,1
 Node,672,STORAGE_1_0_2 AIR NODE,Air,0
 Node,673,STORAGE_1_0_2_Z19_RETURNAIR,Air,1
 Node,674,OFFICE_OPEN_1_1_0 AIR NODE,Air,0
 Node,675,OFFICE_OPEN_1_1_0_Z20_RETURNAIR,Air,1
 Node,676,OFFICE_PRIVATE_1_1_1 AIR NODE,Air,0
 Node,677,OFFICE_PRIVATE_1_1_1_Z21_RETURNAIR,Air,1
 Node,678,STORAGE_1_1_2 AIR NODE,Air,0
 Node,679,STORAGE_1_1_2_Z22_RETURNAIR,Air,1
 Node,680,OFFICE_OPEN_1_2_0 AIR NODE,Air,0
 Node,681,OFFICE_OPEN_1_2_0_Z23_RETURNAIR,Air,1
 Node,682,OFFICE_PRIVATE_1_2_1 AIR NODE,Air,0
 Node,683,OFFICE_PRIVATE_1_2_1_Z24_RETURNAIR,Air,1
 Node,684,STORAGE_1_2_2 AIR NODE,Air,0
 Node,685,STORAGE_1_2_2_Z25_RETURNAIR,Air,1
 Node,686,LOBBY_2 AIR NODE,Air,0
 Node,687,LOBBY_2_Z26_RETURNAIR,Air,1
 Node,688,CONFERENCE_2 AIR NODE,Air,0
 Node,689,CONFERENCE_2_Z27_RETURNAIR,Air,1
 Node,690,BREAK_ROOM_2 AIR NODE,Air,0
 Node,691,BREAK_ROOM_2_Z28_RETURNAIR,Air,1
 Node,692,MECHANICAL_2 AIR NODE,Air,0
 Node,693,MECHANICAL_2_Z29_RETURNAIR,Air,1
 Node,694,OFFICE_OPEN_2_0_0 AIR NODE,Air,0
 Node,695,OFFICE_OPEN_2_0_0_Z30_RETURNAIR,Air,1
 Node,696,OFFICE_PRIVATE_2_0_1 AIR NODE,Air,0
 Node,697,OFFICE_PRIVATE_2_0_1_Z31_RETURNAIR,Air,1
 Node,698,STORAGE_2_0_2 AIR NODE,Air,0
 Node,699,STORAGE_2_0_2_Z32_RETURNAIR,Air,1
 Node,700,OFFICE_OPEN_2_1_0 AIR NODE,Air,0
 Node,701,OFFICE_OPEN_2_1_0_Z33_RETURNAIR,Air,1
 Node,702,OFFICE_PRIVATE_2_1_1 AIR NODE,Air,0
 Node,703,OFFICE_PRIVATE_2_1_1_Z34_RETURNAIR,Air,1
 Node,704,STORAGE_2_1_2 AIR NODE,Air,0
 Node,705,STORAGE_2_1_2_Z35_RETURNAIR,Air,1
 Node,706,OFFICE_OPEN_2_2_0 AIR NODE,Air,0
 Node,707,OFFICE_OPEN_2_2_0_Z36_RETURNAIR,Air,1
 Node,708,OFFICE_PRIVATE_2_2_1 AIR NODE,Air,0
 Node,709,OFFICE_PRIVATE_2_2_1_Z37_RETURNAIR,Air,1
 Node,710,STORAGE_2_2_2 AIR NODE,Air,0
 Node,711,STORAGE_2_2_2_Z38_RETURNAIR,Air,1
 Node,712,LOBBY_3 AIR NODE,Air,0
 Node,713,LOBBY_3_Z39_RETURNAIR,Air,1
 Node,714,CONFERENCE_3 AIR NODE,Air,0
 Node,715,CONFERENCE_3_Z40_RETURNAIR,Air,1
 Node,716,BREAK_ROOM_3 AIR NODE,Air,0
 Node,717,BREAK_ROOM_3_Z41_RETURNAIR,Air,1
 Node,718,MECHANICAL_3 AIR NODE,Air,0
 Node,719,MECHANICAL_3_Z42_RETURNAIR,Air,1
 Node,720,OFFICE_OPEN_3_0_0 AIR NODE,Air,0
 Node,721,OFFICE_OPEN_3_0_0_Z43_RETURNAIR,Air,1
 Node,722,OFFICE_PRIVATE_3_0_1 AIR NODE,Air,0
 Node,723,OFFICE_PRIVATE_3_0_1_Z44_RETURNAIR,Air,1
 Node,724,STORAGE_3_0_2 AIR NODE,Air,0
 Node,725,STORAGE_3_0_2_Z45_RETURNAIR,Air,1
 Node,726,OFFICE_OPEN_3_1_0 AIR NODE,Air,0
 Node,727,OFFICE_OPEN_3_1_0_Z46_RETURNAIR,Air,1
 Node,728,OFFICE_PRIVATE_3_1_1 AIR NODE,Air,0
 Node,729,OFFICE_PRIVATE_3_1_1_Z47_RETURNAIR,Air,1
 Node,730,STORAGE_3_1_2 AIR NODE,Air,0
 Node,731,STORAGE_3_1_2_Z48_RETURNAIR,Air,1
 Node,732,OFFICE_OPEN_3_2_0 AIR NODE,Air,0
 Node,733,OFFICE_OPEN_3_2_0_Z49_RETURNAIR,Air,1
 Node,734,OFFICE_PRIVATE_3_2_1 AIR NODE,Air,0
 Node,735,OFFICE_PRIVATE_3_2_1_Z50_RETURNAIR,Air,1
 Node,736,STORAGE_3_2_2 AIR NODE,Air,0
 Node,737,STORAGE_3_2_2_Z51_RETURNAIR,Air,1
 Node,738,LOBBY_4 AIR NODE,Air,0
 Node,739,LOBBY_4_Z52_RETURNAIR,Air,1
 Node,740,CONFERENCE_4 AIR NODE,Air,0
 Node,741,CONFERENCE_4_Z53_RETURNAIR,Air,1
 Node,742,BREAK_ROOM_4 AIR NODE,Air,0
 Node,743,BREAK_ROOM_4_Z54_RETURNAIR,Air,1
 Node,744,MECHANICAL_4 AIR NODE,Air,0
 Node,745,MECHANICAL_4_Z55_RETURNAIR,Air,1
 Node,746,OFFICE_OPEN_4_0_0 AIR NODE,Air,0
 Node,747,OFFICE_OPEN_4_0_0_Z56_RETURNAIR,Air,1
 Node,748,OFFICE_PRIVATE_4_0_1 AIR NODE,Air,0
 Node,749,OFFICE_PRIVATE_4_0_1_Z57_RETURNAIR,Air,1
 Node,750,STORAGE_4_0_2 AIR NODE,Air,0
 Node,751,STORAGE_4_0_2_Z58_RETURNAIR,Air,1
 Node,752,OFFICE_OPEN_4_1_0 AIR NODE,Air,0
 Node,753,OFFICE_OPEN_4_1_0_Z59_RETURNAIR,Air,1
 Node,754,OFFICE_PRIVATE_4_1_1 AIR NODE,Air,0
 Node,755,OFFICE_PRIVATE_4_1_1_Z60_RETURNAIR,Air,1
 Node,756,STORAGE_4_1_2 AIR NODE,Air,0
 Node,757,STORAGE_4_1_2_Z61_RETURNAIR,Air,1
 Node,758,OFFICE_OPEN_4_2_0 AIR NODE,Air,0
 Node,759,OFFICE_OPEN_4_2_0_Z62_RETURNAIR,Air,1
 Node,760,OFFICE_PRIVATE_4_2_1 AIR NODE,Air,0
 Node,761,OFFICE_PRIVATE_4_2_1_Z63_RETURNAIR,Air,1
 Node,762,STORAGE_4_2_2 AIR NODE,Air,0
 Node,763,STORAGE_4_2_2_Z64_RETURNAIR,Air,1
 Node,764,LOBBY_5 AIR NODE,Air,0
 Node,765,LOBBY_5_Z65_RETURNAIR,Air,1
 Node,766,CONFERENCE_5 AIR NODE,Air,0
 Node,767,CONFERENCE_5_Z66_RETURNAIR,Air,1
 Node,768,BREAK_ROOM_5 AIR NODE,Air,0
 Node,769,BREAK_ROOM_5_Z67_RETURNAIR,Air,1
 Node,770,OFFICE_OPEN_5_0_0 AIR NODE,Air,0
 Node,771,OFFICE_OPEN_5_0_0_Z68_RETURNAIR,Air,1
 Node,772,OFFICE_PRIVATE_5_0_1 AIR NODE,Air,0
 Node,773,OFFICE_PRIVATE_5_0_1_Z69_RETURNAIR,Air,1
 Node,774,STORAGE_5_0_2 AIR NODE,Air,0
 Node,775,STORAGE_5_0_2_Z70_RETURNAIR,Air,1
 Node,776,OFFICE_OPEN_5_1_0 AIR NODE,Air,0
 Node,777,OFFICE_OPEN_5_1_0_Z71_RETURNAIR,Air,1
 Node,778,OFFICE_PRIVATE_5_1_1 AIR NODE,Air,0
 Node,779,OFFICE_PRIVATE_5_1_1_Z72_RETURNAIR,Air,1
 Node,780,STORAGE_5_1_2 AIR NODE,Air,0
 Node,781,STORAGE_5_1_2_Z73_RETURNAIR,Air,1
 Node,782,OFFICE_OPEN_5_2_0 AIR NODE,Air,0
 Node,783,OFFICE_OPEN_5_2_0_Z74_RETURNAIR,Air,1
 Node,784,OFFICE_PRIVATE_5_2_1 AIR NODE,Air,0
 Node,785,OFFICE_PRIVATE_5_2_1_Z75_RETURNAIR,Air,1
 Node,786,STORAGE_5_2_2 AIR NODE,Air,0
 Node,787,STORAGE_5_2_2_Z76_RETURNAIR,Air,1
 Node,788,LOBBY_6 AIR NODE,Air,0
 Node,789,LOBBY_6_Z77_RETURNAIR,Air,1
 Node,790,CONFERENCE_6 AIR NODE,Air,0
 Node,791,CONFERENCE_6_Z78_RETURNAIR,Air,1
 Node,792,BREAK_ROOM_6 AIR NODE,Air,0
 Node,793,BREAK_ROOM_6_Z79_RETURNAIR,Air,1
 Node,794,MECHANICAL_6 AIR NODE,Air,0
 Node,795,MECHANICAL_6_Z80_RETURNAIR,Air,1
 Node,796,OFFICE_OPEN_6_0_0 AIR NODE,Air,0
 Node,797,OFFICE_OPEN_6_0_0_Z81_RETURNAIR,Air,1
 Node,798,OFFICE_PRIVATE_6_0_1 AIR NODE,Air,0
 Node,799,OFFICE_PRIVATE_6_0_1_Z82_RETURNAIR,Air,1
 Node,800,STORAGE_6_0_2 AIR NODE,Air,0
 Node,801,STORAGE_6_0_2_Z83_RETURNAIR,Air,1
 Node,802,OFFICE_OPEN_6_1_0 AIR NODE,Air,0
 Node,803,OFFICE_OPEN_6_1_0_Z84_RETURNAIR,Air,1
 Node,804,OFFICE_PRIVATE_6_1_1 AIR NODE,Air,0
 Node,805,OFFICE_PRIVATE_6_1_1_Z85_RETURNAIR,Air,1
 Node,806,STORAGE_6_1_2 AIR NODE,Air,0
 Node,807,STORAGE_6_1_2_Z86_RETURNAIR,Air,1
 Node,808,OFFICE_OPEN_6_2_0 AIR NODE,Air,0
 Node,809,OFFICE_OPEN_6_2_0_Z87_RETURNAIR,Air,1
 Node,810,OFFICE_PRIVATE_6_2_1 AIR NODE,Air,0
 Node,811,OFFICE_PRIVATE_6_2_1_Z88_RETURNAIR,Air,1
 Node,812,STORAGE_6_2_2 AIR NODE,Air,0
 Node,813,STORAGE_6_2_2_Z89_RETURNAIR,Air,1
 Node,814,LOBBY_7 AIR NODE,Air,0
 Node,815,LOBBY_7_Z90_RETURNAIR,Air,1
 Node,816,CONFERENCE_7 AIR NODE,Air,0
 Node,817,CONFERENCE_7_Z91_RETURNAIR,Air,1
 Node,818,BREAK_ROOM_7 AIR NODE,Air,0
 Node,819,BREAK_ROOM_7_Z92_RETURNAIR,Air,1
 Node,820,MECHANICAL_7 AIR NODE,Air,0
 Node,821,MECHANICAL_7_Z93_RETURNAIR,Air,1
 Node,822,OFFICE_OPEN_7_0_0 AIR NODE,Air,0
 Node,823,OFFICE_OPEN_7_0_0_Z94_RETURNAIR,Air,1
 Node,824,OFFICE_PRIVATE_7_0_1 AIR NODE,Air,0
 Node,825,OFFICE_PRIVATE_7_0_1_Z95_RETURNAIR,Air,1
 Node,826,STORAGE_7_0_2 AIR NODE,Air,0
 Node,827,STORAGE_7_0_2_Z96_RETURNAIR,Air,1
 Node,828,OFFICE_OPEN_7_1_0 AIR NODE,Air,0
 Node,829,OFFICE_OPEN_7_1_0_Z97_RETURNAIR,Air,1
 Node,830,OFFICE_PRIVATE_7_1_1 AIR NODE,Air,0
 Node,831,OFFICE_PRIVATE_7_1_1_Z98_RETURNAIR,Air,1
 Node,832,STORAGE_7_1_2 AIR NODE,Air,0
 Node,833,STORAGE_7_1_2_Z99_RETURNAIR,Air,1
 Node,834,OFFICE_OPEN_7_2_0 AIR NODE,Air,0
 Node,835,OFFICE_OPEN_7_2_0_Z100_RETURNAIR,Air,1
 Node,836,OFFICE_PRIVATE_7_2_1 AIR NODE,Air,0
 Node,837,OFFICE_PRIVATE_7_2_1_Z101_RETURNAIR,Air,1
 Node,838,STORAGE_7_2_2 AIR NODE,Air,0
 Node,839,STORAGE_7_2_2_Z102_RETURNAIR,Air,1
 Node,840,LOBBY_8 AIR NODE,Air,0
 Node,841,LOBBY_8_Z103_RETURNAIR,Air,1
 Node,842,CONFERENCE_8 AIR NODE,Air,0
 Node,843,CONFERENCE_8_Z104_RETURNAIR,Air,1
 Node,844,BREAK_ROOM_8 AIR NODE,Air,0
 Node,845,BREAK_ROOM_8_Z105_RETURNAIR,Air,1
 Node,846,MECHANICAL_8 AIR NODE,Air,0
 Node,847,MECHANICAL_8_Z106_RETURNAIR,Air,1
 Node,848,OFFICE_OPEN_8_0_0 AIR NODE,Air,0
 Node,849,OFFICE_OPEN_8_0_0_Z107_RETURNAIR,Air,1
 Node,850,OFFICE_PRIVATE_8_0_1 AIR NODE,Air,0
 Node,851,OFFICE_PRIVATE_8_0_1_Z108_RETURNAIR,Air,1
 Node,852,STORAGE_8_0_2 AIR NODE,Air,0
 Node,853,STORAGE_8_0_2_Z109_RETURNAIR,Air,1
 Node,854,OFFICE_OPEN_8_1_0 AIR NODE,Air,0
 Node,855,OFFICE_OPEN_8_1_0_Z110_RETURNAIR,Air,1
 Node,856,OFFICE_PRIVATE_8_1_1 AIR NODE,Air,0
 Node,857,OFFICE_PRIVATE_8_1_1_Z111_RETURNAIR,Air,1
 Node,858,STORAGE_8_1_2 AIR NODE,Air,0
 Node,859,STORAGE_8_1_2_Z112_RETURNAIR,Air,1
 Node,860,OFFICE_OPEN_8_2_0 AIR NODE,Air,0
 Node,861,OFFICE_OPEN_8_2_0_Z113_RETURNAIR,Air,1
 Node,862,OFFICE_PRIVATE_8_2_1 AIR NODE,Air,0
 Node,863,OFFICE_PRIVATE_8_2_1_Z114_RETURNAIR,Air,1
 Node,864,STORAGE_8_2_2 AIR NODE,Air,0
 Node,865,STORAGE_8_2_2_Z115_RETURNAIR,Air,1
 Node,866,LOBBY_9 AIR NODE,Air,0
 Node,867,LOBBY_9_Z116_RETURNAIR,Air,1
 Node,868,CONFERENCE_9 AIR NODE,Air,0
 Node,869,CONFERENCE_9_Z117_RETURNAIR,Air,1
 Node,870,BREAK_ROOM_9 AIR NODE,Air,0
 Node,871,BREAK_ROOM_9_Z118_RETURNAIR,Air,1
 Node,872,OFFICE_OPEN_9_0_0 AIR NODE,Air,0
 Node,873,OFFICE_OPEN_9_0_0_Z119_RETURNAIR,Air,1
 Node,874,OFFICE_PRIVATE_9_0_1 AIR NODE,Air,0
 Node,875,OFFICE_PRIVATE_9_0_1_Z120_RETURNAIR,Air,1
 Node,876,STORAGE_9_0_2 AIR NODE,Air,0
 Node,877,STORAGE_9_0_2_Z121_RETURNAIR,Air,1
 Node,878,OFFICE_OPEN_9_1_0 AIR NODE,Air,0
 Node,879,OFFICE_OPEN_9_1_0_Z122_RETURNAIR,Air,1
 Node,880,OFFICE_PRIVATE_9_1_1 AIR NODE,Air,0
 Node,881,OFFICE_PRIVATE_9_1_1_Z123_RETURNAIR,Air,1
 Node,882,STORAGE_9_1_2 AIR NODE,Air,0
 Node,883,STORAGE_9_1_2_Z124_RETURNAIR,Air,1
 Node,884,OFFICE_OPEN_9_2_0 AIR NODE,Air,0
 Node,885,OFFICE_OPEN_9_2_0_Z125_RETURNAIR,Air,1
 Node,886,OFFICE_PRIVATE_9_2_1 AIR NODE,Air,0
 Node,887,OFFICE_PRIVATE_9_2_1_Z126_RETURNAIR,Air,1
 Node,888,STORAGE_9_2_2 AIR NODE,Air,0
 Node,889,STORAGE_9_2_2_Z127_RETURNAIR,Air,1
 Node,890,LOBBY_0_Z1_ZONEEQUIPMENTINLET,Air,2
 Node,891,CONFERENCE_0_Z2_ZONEEQUIPMENTINLET,Air,2
 Node,892,BREAK_ROOM_0_Z3_ZONEEQUIPMENTINLET,Air,2
 Node,893,MECHANICAL_0_Z4_ZONEEQUIPMENTINLET,Air,2
 Node,894,OFFICE_OPEN_0_0_0_Z5_ZONEEQUIPMENTINLET,Air,2
 Node,895,OFFICE_PRIVATE_0_0_1_Z6_ZONEEQUIPMENTINLET,Air,2
 Node,896,STORAGE_0_0_2_Z7_ZONEEQUIPMENTINLET,Air,2
 Node,897,OFFICE_OPEN_0_1_0_Z8_ZONEEQUIPMENTINLET,Air,2
 Node,898,OFFICE_PRIVATE_0_1_1_Z9_ZONEEQUIPMENTINLET,Air,2
 Node,899,STORAGE_0_1_2_Z10_ZONEEQUIPMENTINLET,Air,2
 Node,900,OFFICE_OPEN_0_2_0_Z11_ZONEEQUIPMENTINLET,Air,2
 Node,901,OFFICE_PRIVATE_0_2_1_Z12_ZONEEQUIPMENTINLET,Air,2
 Node,902,STORAGE_0_2_2_Z13_ZONEEQUIPMENTINLET,Air,2
 Node,903,LOBBY_1_Z14_ZONEEQUIPMENTINLET,Air,2
 Node,904,CONFERENCE_1_Z15_ZONEEQUIPMENTINLET,Air,2
 Node,905,MECHANICAL_1_Z16_ZONEEQUIPMENTINLET,Air,2
 Node,906,OFFICE_OPEN_1_0_0_Z17_ZONEEQUIPMENTINLET,Air,2
 Node,907,OFFICE_PRIVATE_1_0_1_Z18_ZONEEQUIPMENTINLET,Air,2
 Node,908,STORAGE_1_0_2_Z19_ZONEEQUIPMENTINLET,Air,2
 Node,909,OFFICE_OPEN_1_1_0_Z20_ZONEEQUIPMENTINLET,Air,2
 Node,910,OFFICE_PRIVATE_1_1_1_Z21_ZONEEQUIPMENTINLET,Air,2
 Node,911,STORAGE_1_1_2_Z22_ZONEEQUIPMENTINLET,Air,2
 Node,912,OFFICE_OPEN_1_2_0_Z23_ZONEEQUIPMENTINLET,Air,2
 Node,913,OFFICE_PRIVATE_1_2_1_Z24_ZONEEQUIPMENTINLET,Air,2
 Node,914,STORAGE_1_2_2_Z25_ZONEEQUIPMENTINLET,Air,2
 Node,915,LOBBY_2_Z26_ZONEEQUIPMENTINLET,Air,2
 Node,916,CONFERENCE_2_Z27_ZONEEQUIPMENTINLET,Air,2
 Node,917,BREAK_ROOM_2_Z28_ZONEEQUIPMENTINLET,Air,2
 Node,918,MECHANICAL_2_Z29_ZONEEQUIPMENTINLET,Air,2
 Node,919,OFFICE_OPEN_2_0_0_Z30_ZONEEQUIPMENTINLET,Air,2
 Node,920,OFFICE_PRIVATE_2_0_1_Z31_ZONEEQUIPMENTINLET,Air,2
 Node,921,STORAGE_2_0_2_Z32_ZONEEQUIPMENTINLET,Air,2
 Node,922,OFFICE_OPEN_2_1_0_Z33_ZONEEQUIPMENTINLET,Air,2
 Node,923,OFFICE_PRIVATE_2_1_1_Z34_ZONEEQUIPMENTINLET,Air,2
 Node,924,STORAGE_2_1_2_Z35_ZONEEQUIPMENTINLET,Air,2
 Node,925,OFFICE_OPEN_2_2_0_Z36_ZONEEQUIPMENTINLET,Air,2
 Node,926,OFFICE_PRIVATE_2_2_1_Z37_ZONEEQUIPMENTINLET,Air,2
 Node,927,STORAGE_2_2_2_Z38_ZONEEQUIPMENTINLET,Air,2
 Node,928,LOBBY_3_Z39_ZONEEQUIPMENTINLET,Air,2
 Node,929,CONFERENCE_3_Z40_ZONEEQUIPMENTINLET,Air,2
 Node,930,BREAK_ROOM_3_Z41_ZONEEQUIPMENTINLET,Air,2
 Node,931,MECHANICAL_3_Z42_ZONEEQUIPMENTINLET,Air,2
 Node,932,OFFICE_OPEN_3_0_0_Z43_ZONEEQUIPMENTINLET,Air,2
 Node,933,OFFICE_PRIVATE_3_0_1_Z44_ZONEEQUIPMENTINLET,Air,2
 Node,934,STORAGE_3_0_2_Z45_ZONEEQUIPMENTINLET,Air,2
 Node,935,OFFICE_OPEN_3_1_0_Z46_ZONEEQUIPMENTINLET,Air,2
 Node,936,OFFICE_PRIVATE_3_1_1_Z47_ZONEEQUIPMENTINLET,Air,2
 Node,937,STORAGE_3_1_2_Z48_ZONEEQUIPMENTINLET,Air,2
 Node,938,OFFICE_OPEN_3_2_0_Z49_ZONEEQUIPMENTINLET,Air,2
 Node,939,OFFICE_PRIVATE_3_2_1_Z50_ZONEEQUIPMENTINLET,Air,2
 Node,940,STORAGE_3_2_2_Z51_ZONEEQUIPMENTINLET,Air,2
 Node,941,LOBBY_4_Z52_ZONEEQUIPMENTINLET,Air,2
 Node,942,CONFERENCE_4_Z53_ZONEEQUIPMENTINLET,Air,2
 Node,943,BREAK_ROOM_4_Z54_ZONEEQUIPMENTINLET,Air,2
 Node,944,MECHANICAL_4_Z55_ZONEEQUIPMENTINLET,Air,2
 Node,945,OFFICE_OPEN_4_0_0_Z56_ZONEEQUIPMENTINLET,Air,2
 Node,946,OFFICE_PRIVATE_4_0_1_Z57_ZONEEQUIPMENTINLET,Air,2
 Node,947,STORAGE_4_0_2_Z58_ZONEEQUIPMENTINLET,Air,2
 Node,948,OFFICE_OPEN_4_1_0_Z59_ZONEEQUIPMENTINLET,Air,2
 Node,949,OFFICE_PRIVATE_4_1_1_Z60_ZONEEQUIPMENTINLET,Air,2
 Node,950,STORAGE_4_1_2_Z61_ZONEEQUIPMENTINLET,Air,2
 Node,951,OFFICE_OPEN_4_2_0_Z62_ZONEEQUIPMENTINLET,Air,2
 Node,952,OFFICE_PRIVATE_4_2_1_Z63_ZONEEQUIPMENTINLET,Air,2
 Node,953,STORAGE_4_2_2_Z64_ZONEEQUIPMENTINLET,Air,2
 Node,954,LOBBY_5_Z65_ZONEEQUIPMENTINLET,Air,2
 Node,955,CONFERENCE_5_Z66_ZONEEQUIPMENTINLET,Air,2
 Node,956,BREAK_ROOM_5_Z67_ZONEEQUIPMENTINLET,Air,2
 Node,957,OFFICE_OPEN_5_0_0_Z68_ZONEEQUIPMENTINLET,Air,2
 Node,958,OFFICE_PRIVATE_5_0_1_Z69_ZONEEQUIPMENTINLET,Air,2
 Node,959,STORAGE_5_0_2_Z70_ZONEEQUIPMENTINLET,Air,2
 Node,960,OFFICE_OPEN_5_1_0_Z71_ZONEEQUIPMENTINLET,Air,2
 Node,961,OFFICE_PRIVATE_5_1_1_Z72_ZONEEQUIPMENTINLET,Air,2
 Node,962,STORAGE_5_1_2_Z73_ZONEEQUIPMENTINLET,Air,2
 Node,963,OFFICE_OPEN_5_2_0_Z74_ZONEEQUIPMENTINLET,Air,2
 Node,964,OFFICE_PRIVATE_5_2_1_Z75_ZONEEQUIPMENTINLET,Air,2
 Node,965,STORAGE_5_2_2_Z76_ZONEEQUIPMENTINLET,Air,2
 Node,966,LOBBY_6_Z77_ZONEEQUIPMENTINLET,Air,2
 Node,967,CONFERENCE_6_Z78_ZONEEQUIPMENTINLET,Air,2
 Node,968,BREAK_ROOM_6_Z79_ZONEEQUIPMENTINLET,Air,2
 Node,969,MECHANICAL_6_Z80_ZONEEQUIPMENTINLET,Air,2
 Node,970,OFFICE_OPEN_6_0_0_Z81_ZONEEQUIPMENTINLET,Air,2
 Node,971,OFFICE_PRIVATE_6_0_1_Z82_ZONEEQUIPMENTINLET,Air,2
 Node,972,STORAGE_6_0_2_Z83_ZONEEQUIPMENTINLET,Air,2
 Node,973,OFFICE_OPEN_6_1_0_Z84_ZONEEQUIPMENTINLET,Air,2
 Node,974,OFFICE_PRIVATE_6_1_1_Z85_ZONEEQUIPMENTINLET,Air,2
 Node,975,STORAGE_6_1_2_Z86_ZONEEQUIPMENTINLET,Air,2
 Node,976,OFFICE_OPEN_6_2_0_Z87_ZONEEQUIPMENTINLET,Air,2
 Node,977,OFFICE_PRIVATE_6_2_1_Z88_ZONEEQUIPMENTINLET,Air,2
 Node,978,STORAGE_6_2_2_Z89_ZONEEQUIPMENTINLET,Air,2
 Node,979,LOBBY_7_Z90_ZONEEQUIPMENTINLET,Air,2
 Node,980,CONFERENCE_7_Z91_ZONEEQUIPMENTINLET,Air,2
 Node,981,BREAK_ROOM_7_Z92_ZONEEQUIPMENTINLET,Air,2
 Node,982,MECHANICAL_7_Z93_ZONEEQUIPMENTINLET,Air,2
 Node,983,OFFICE_OPEN_7_0_0_Z94_ZONEEQUIPMENTINLET,Air,2
 Node,984,OFFICE_PRIVATE_7_0_1_Z95_ZONEEQUIPMENTINLET,Air,2
 Node,985,STORAGE_7_0_2_Z96_ZONEEQUIPMENTINLET,Air,2
 Node,986,OFFICE_OPEN_7_1_0_Z97_ZONEEQUIPMENTINLET,Air,2
 Node,987,OFFICE_PRIVATE_7_1_1_Z98_ZONEEQUIPMENTINLET,Air,2
 Node,988,STORAGE_7_1_2_Z99_ZONEEQUIPMENTINLET,Air,2
 Node,989,OFFICE_OPEN_7_2_0_Z100_ZONEEQUIPMENTINLET,Air,2
 Node,990,OFFICE_PRIVATE_7_2_1_Z101_ZONEEQUIPMENTINLET,Air,2
 Node,991,STORAGE_7_2_2_Z102_ZONEEQUIPMENTINLET,Air,2
 Node,992,LOBBY_8_Z103_ZONEEQUIPMENTINLET,Air,2
 Node,993,CONFERENCE_8_Z104_ZONEEQUIPMENTINLET,Air,2
 Node,994,BREAK_ROOM_8_Z105_ZONEEQUIPMENTINLET,Air,2
 Node,995,MECHANICAL_8_Z106_ZONEEQUIPMENTINLET,Air,2
 Node,996,OFFICE_OPEN_8_0_0_Z107_ZONEEQUIPMENTINLET,Air,2
 Node,997,OFFICE_PRIVATE_8_0_1_Z108_ZONEEQUIPMENTINLET,Air,2
 Node,998,STORAGE_8_0_2_Z109_ZONEEQUIPMENTINLET,Air,2
 Node,999,OFFICE_OPEN_8_1_0_Z110_ZONEEQUIPMENTINLET,Air,2
 Node,1000,OFFICE_PRIVATE_8_1_1_Z111_ZONEEQUIPMENTINLET,Air,2
 Node,1001,STORAGE_8_1_2_Z112_ZONEEQUIPMENTINLET,Air,2
 Node,1002,OFFICE_OPEN_8_2_0_Z113_ZONEEQUIPMENTINLET,Air,2
 Node,1003,OFFICE_PRIVATE_8_2_1_Z114_ZONEEQUIPMENTINLET,Air,2
 Node,1004,STORAGE_8_2_2_Z115_ZONEEQUIPMENTINLET,Air,2
 Node,1005,LOBBY_9_Z116_ZONEEQUIPMENTINLET,Air,2
 Node,1006,CONFERENCE_9_Z117_ZONEEQUIPMENTINLET,Air,2
 Node,1007,BREAK_ROOM_9_Z118_ZONEEQUIPMENTINLET,Air,2
 Node,1008,OFFICE_OPEN_9_0_0_Z119_ZONEEQUIPMENTINLET,Air,2
 Node,1009,OFFICE_PRIVATE_9_0_1_Z120_ZONEEQUIPMENTINLET,Air,2
 Node,1010,STORAGE_9_0_2_Z121_ZONEEQUIPMENTINLET,Air,2
 Node,1011,OFFICE_OPEN_9_1_0_Z122_ZONEEQUIPMENTINLET,Air,2
 Node,1012,OFFICE_PRIVATE_9_1_1_Z123_ZONEEQUIPMENTINLET,Air,2
 Node,1013,STORAGE_9_1_2_Z124_ZONEEQUIPMENTINLET,Air,2
 Node,1014,OFFICE_OPEN_9_2_0_Z125_ZONEEQUIPMENTINLET,Air,2
 Node,1015,OFFICE_PRIVATE_9_2_1_Z126_ZONEEQUIPMENTINLET,Air,2
 Node,1016,STORAGE_9_2_2_Z127_ZONEEQUIPMENTINLET,Air,2
 Node,1017,LOBBY_0_Z1_ZONEEQUIPMENTOUTLETNODE,Air,2
 Node,1018,CONFERENCE_0_Z2_ZONEEQUIPMENTOUTLETNODE,Air,2
 Node,1019,BREAK_ROOM_0_Z3_ZONEEQUIPMENTOUTLETNODE,Air,2
 Node,1020,MECHANICAL_0_Z4_ZONEEQUIPMENTOUTLETNODE,Air,2
 Node,1021,OFFICE_OPEN_0_0_0_Z5_ZONEEQUIPMENTOUTLETNODE,Air,2
 Node,1022,OFFICE_PRIVATE_0_0_1_Z6_ZONEEQUIPMENTOUTLETNODE,Air,2
 Node,1023,STORAGE_0_0_2_Z7_ZONEEQUIPMENTOUTLETNODE,Air,2
 Node,1024,OFFICE_OPEN_0_1_0_Z8_ZONEEQUIPMENTOUTLETNODE,Air,2
 Node,1025,OFFICE_PRIVATE_0_1_1_Z9_ZONEEQUIPMENTOUTLETNODE,Air,2
 Node,1026,STORAGE_0_1_2_Z10_ZONEEQUIPMENTOUTLETNODE,Air,2
 Node,1027,OFFICE_OPEN_0_2_0_Z11_ZONEEQUIPMENTOUTLETNODE,Air,2
 Node,1028,OFFICE_PRIVATE_0_2_1_Z12_ZONEEQUIPMENTOUTLETNODE,Air,2
 Node,1029,STORAGE_0_2_2_Z13_ZONEEQUIPMENTOUTLETNODE,Air,2
 Node,1030,LOBBY_1_Z14_ZONEEQUIPMENTOUTLETNODE,Air,2
 Node,1031,CONFERENCE_1_Z15_ZONEEQUIPMENTOUTLETNODE,Air,2
 Node,1032,MECHANICAL_1_Z16_ZONEEQUIPMENTOUTLETNODE,Air,2
 Node,1033,OFFICE_OPEN_1_0_0_Z17_ZONEEQUIPMENTOUTLETNODE,Air,2
 Node,1034,OFFICE_PRIVATE_1_0_1_Z18_ZONEEQUIPMENTOUTLETNODE,Air,2
 Node,1035,STORAGE_1_0_2_Z19_ZONEEQUIPMENTOUTLETNODE,Air,2
 Node,1036,OFFICE_OPEN_1_1_0_Z20_ZONEEQUIPMENTOUTLETNODE,Air,2
 Node,1037,OFFICE_PRIVATE_1_1_1_Z21_ZONEEQUIPMENTOUTLETNODE,Air,2
 Node,1038,STORAGE_1_1_2_Z22_ZONEEQUIPMENTOUTLETNODE,Air,2
 Node,1039,OFFICE_OPEN_1_2_0_Z23_ZONEEQUIPMENTOUTLETNODE,Air,2
 Node,1040,OFFICE_PRIVATE_1_2_1_Z24_ZONEEQUIPMENTOUTLETNODE,Air,2
 Node,1041,STORAGE_1_2_2_Z25_ZONEEQUIPMENTOUTLETNODE,Air,2
 Node,1042,LOBBY_2_Z26_ZONEEQUIPMENTOUTLETNODE,Air,2
 Node,1043,CONFERENCE_2_Z27_ZONEEQUIPMENTOUTLETNODE,Air,2
 Node,1044,BREAK_ROOM_2_Z28_ZONEEQUIPMENTOUTLETNODE,Air,2
 Node,1045,MECHANICAL_2_Z29_ZONEEQUIPMENTOUTLETNODE,Air,2
 Node,1046,OFFICE_OPEN_2_0_0_Z30_ZONEEQUIPMENTOUTLETNODE,Air,2
 Node,1047,OFFICE_PRIVATE_2_0_1_Z31_ZONEEQUIPMENTOUTLETNODE,Air,2
 Node,1048,STORAGE_2_0_2_Z32_ZONEEQUIPMENTOUTLETNODE,Air,2
 Node,1049,OFFICE_OPEN_2_1_0_Z33_ZONEEQUIPMENTOUTLETNODE,Air,2
 Node,1050,OFFICE_PRIVATE_2_1_1_Z34_ZONEEQUIPMENTOUTLETNODE,Air,2
 Node,1051,STORAGE_2_1_2_Z35_ZONEEQUIPMENTOUTLETNODE,Air,2
 Node,1052,OFFICE_OPEN_2_2_0_Z36_ZONEEQUIPMENTOUTLETNODE,Air,2
 Node,1053,OFFICE_PRIVATE_2_2_1_Z37_ZONEEQUIPMENTOUTLETNODE,Air,2
 Node,1054,STORAGE_2_2_2_Z38_ZONEEQUIPMENTOUTLETNODE,Air,2
 Node,1055,LOBBY_3_Z39_ZONEEQUIPMENTOUTLETNODE,Air,2
 Node,1056,CONFERENCE_3_Z40_ZONEEQUIPMENTOUTLETNODE,Air,2
 Node,1057,BREAK_ROOM_3_Z41_ZONEEQUIPMENTOUTLETNODE,Air,2
 Node,1058,MECHANICAL_3_Z42_ZONEEQUIPMENTOUTLETNODE,Air,2
 Node,1059,OFFICE_OPEN_3_0_0_Z43_ZONEEQUIPMENTOUTLETNODE,Air,2
 Node,1060,OFFICE_PRIVATE_3_0_1_Z44_ZONEEQUIPMENTOUTLETNODE,Air,2
 Node,1061,STORAGE_3_0_2_Z45_ZONEEQUIPMENTOUTLETNODE,Air,2
 Node,1062,OFFICE_OPEN_3_1_0_Z46_ZONEEQUIPMENTOUTLETNODE,Air,2
 Node,1063,OFFICE_PRIVATE_3_1_1_Z47_ZONEEQUIPMENTOUTLETNODE,Air,2
 Node,1064,STORAGE_3_1_2_Z48_ZONEEQUIPMENTOUTLETNODE,Air,2
 Node,1065,OFFICE_OPEN_3_2_0_Z49_ZONEEQUIPMENTOUTLETNODE,Air,2
 Node,1066,OFFICE_PRIVATE_3_2_1_Z50_ZONEEQUIPMENTOUTLETNODE,Air,2
 Node,1067,STORAGE_3_2_2_Z51_ZONEEQUIPMENTOUTLETNODE,Air,2
 Node,1068,LOBBY_4_Z52_ZONEEQUIPMENTOUTLETNODE,Air,2
 Node,1069,CONFERENCE_4_Z53_ZONEEQUIPMENTOUTLETNODE,Air,2
 Node,1070,BREAK_ROOM_4_Z54_ZONEEQUIPMENTOUTLETNODE,Air,2
 Node,1071,MECHANICAL_4_Z55_ZONEEQUIPMENTOUTLETNODE,Air,2
 Node,1072,OFFICE_OPEN_4_0_0_Z56_ZONEEQUIPMENTOUTLETNODE,Air,2
 Node,1073,OFFICE_PRIVATE_4_0_1_Z57_ZONEEQUIPMENTOUTLETNODE,Air,2
 Node,1074,STORAGE_4_0_2_Z58_ZONEEQUIPMENTOUTLETNODE,Air,2
 Node,1075,OFFICE_OPEN_4_1_0_Z59_ZONEEQUIPMENTOUTLETNODE,Air,2
 Node,1076,OFFICE_PRIVATE_4_1_1_Z60_ZONEEQUIPMENTOUTLETNODE,Air,2
 Node,1077,STORAGE_4_1_2_Z61_ZONEEQUIPMENTOUTLETNODE,Air,2
 Node,1078,OFFICE_OPEN_4_2_0_Z62_ZONEEQUIPMENTOUTLETNODE,Air,2
 Node,1079,OFFICE_PRIVATE_4_2_1_Z63_ZONEEQUIPMENTOUTLETNODE,Air,2
 Node,1080,STORAGE_4_2_2_Z64_ZONEEQUIPMENTOUTLETNODE,Air,2
 Node,1081,LOBBY_5_Z65_ZONEEQUIPMENTOUTLETNODE,Air,2
 Node,1082,CONFERENCE_5_Z66_ZONEEQUIPMENTOUTLETNODE,Air,2
 Node,1083,BREAK_ROOM_5_Z67_ZONEEQUIPMENTOUTLETNODE,Air,2
 Node,1084,OFFICE_OPEN_5_0_0_Z68_ZONEEQUIPMENTOUTLETNODE,Air,2
 Node,1085,OFFICE_PRIVATE_5_0_1_Z69_ZONEEQUIPMENTOUTLETNODE,Air,2
 Node,1086,STORAGE_5_0_2_Z70_ZONEEQUIPMENTOUTLETNODE,Air,2
 Node,1087,OFFICE_OPEN_5_1_0_Z71_ZONEEQUIPMENTOUTLETNODE,Air,2
 Node,1088,OFFICE_PRIVATE_5_1_1_Z72_ZONEEQUIPMENTOUTLETNODE,Air,2
 Node,1089,STORAGE_5_1_2_Z73_ZONEEQUIPMENTOUTLETNODE,Air,2
 Node,1090,OFFICE_OPEN_5_2_0_Z74_ZONEEQUIPMENTOUTLETNODE,Air,2
 Node,1091,OFFICE_PRIVATE_5_2_1_Z75_ZONEEQUIPMENTOUTLETNODE,Air,2
 Node,1092,STORAGE_5_2_2_Z76_ZONEEQUIPMENTOUTLETNODE,Air,2
 Node,1093,LOBBY_6_Z77_ZONEEQUIPMENTOUTLETNODE,Air,2
 Node,1094,CONFERENCE_6_Z78_ZONEEQUIPMENTOUTLETNODE,Air,2
 Node,1095,BREAK_ROOM_6_Z79_ZONEEQUIPMENTOUTLETNODE,Air,2
 Node,1096,MECHANICAL_6_Z80_ZONEEQUIPMENTOUTLETNODE,Air,2
 Node,1097,OFFICE_OPEN_6_0_0_Z81_ZONEEQUIPMENTOUTLETNODE,Air,2
 Node,1098,OFFICE_PRIVATE_6_0_1_Z82_ZONEEQUIPMENTOUTLETNODE,Air,2
 Node,1099,STORAGE_6_0_2_Z83_ZONEEQUIPMENTOUTLETNODE,Air,2
 Node,1100,OFFICE_OPEN_6_1_0_Z84_ZONEEQUIPMENTOUTLETNODE,Air,2
 Node,1101,OFFICE_PRIVATE_6_1_1_Z85_ZONEEQUIPMENTOUTLETNODE,Air,2
 Node,1102,STORAGE_6_1_2_Z86_ZONEEQUIPMENTOUTLETNODE,Air,2
 Node,1103,OFFICE_OPEN_6_2_0_Z87_ZONEEQUIPMENTOUTLETNODE,Air,2
 Node,1104,OFFICE_PRIVATE_6_2_1_Z88_ZONEEQUIPMENTOUTLETNODE,Air,2
 Node,1105,STORAGE_6_2_2_Z89_ZONEEQUIPMENTOUTLETNODE,Air,2
 Node,1106,LOBBY_7_Z90_ZONEEQUIPMENTOUTLETNODE,Air,2
 Node,1107,CONFERENCE_7_Z91_ZONEEQUIPMENTOUTLETNODE,Air,2
 Node,1108,BREAK_ROOM_7_Z92_ZONEEQUIPMENTOUTLETNODE,Air,2
 Node,1109,MECHANICAL_7_Z93_ZONEEQUIPMENTOUTLETNODE,Air,2
 Node,1110,OFFICE_OPEN_7_0_0_Z94_ZONEEQUIPMENTOUTLETNODE,Air,2
 Node,1111,OFFICE_PRIVATE_7_0_1_Z95_ZONEEQUIPMENTOUTLETNODE,Air,2
 Node,1112,STORAGE_7_0_2_Z96_ZONEEQUIPMENTOUTLETNODE,Air,2
 Node,1113,OFFICE_OPEN_7_1_0_Z97_ZONEEQUIPMENTOUTLETNODE,Air,2
 Node,1114,OFFICE_PRIVATE_7_1_1_Z98_ZONEEQUIPMENTOUTLETNODE,Air,2
 Node,1115,STORAGE_7_1_2_Z99_ZONEEQUIPMENTOUTLETNODE,Air,2
 Node,1116,OFFICE_OPEN_7_2_0_Z100_ZONEEQUIPMENTOUTLETNODE,Air,2
 Node,1117,OFFICE_PRIVATE_7_2_1_Z101_ZONEEQUIPMENTOUTLETNODE,Air,2
 Node,1118,STORAGE_7_2_2_Z102_ZONEEQUIPMENTOUTLETNODE,Air,2
 Node,1119,LOBBY_8_Z103_ZONEEQUIPMENTOUTLETNODE,Air,2
 Node,1120,CONFERENCE_8_Z104_ZONEEQUIPMENTOUTLETNODE,Air,2
 Node,1121,BREAK_ROOM_8_Z105_ZONEEQUIPMENTOUTLETNODE,Air,2
 Node,1122,MECHANICAL_8_Z106_ZONEEQUIPMENTOUTLETNODE,Air,2
 Node,1123,OFFICE_OPEN_8_0_0_Z107_ZONEEQUIPMENTOUTLETNODE,Air,2
 Node,1124,OFFICE_PRIVATE_8_0_1_Z108_ZONEEQUIPMENTOUTLETNODE,Air,2
 Node,1125,STORAGE_8_0_2_Z109_ZONEEQUIPMENTOUTLETNODE,Air,2
 Node,1126,OFFICE_OPEN_8_1_0_Z110_ZONEEQUIPMENTOUTLETNODE,Air,2
 Node,1127,OFFICE_PRIVATE_8_1_1_Z111_ZONEEQUIPMENTOUTLETNODE,Air,2
 Node,1128,STORAGE_8_1_2_Z112_ZONEEQUIPMENTOUTLETNODE,Air,2
 Node,1129,OFFICE_OPEN_8_2_0_Z113_ZONEEQUIPMENTOUTLETNODE,Air,2
 Node,1130,OFFICE_PRIVATE_8_2_1_Z114_ZONEEQUIPMENTOUTLETNODE,Air,2
 Node,1131,STORAGE_8_2_2_Z115_ZONEEQUIPMENTOUTLETNODE,Air,2
 Node,1132,LOBBY_9_Z116_ZONEEQUIPMENTOUTLETNODE,Air,2
 Node,1133,CONFERENCE_9_Z117_ZONEEQUIPMENTOUTLETNODE,Air,2
 Node,1134,BREAK_ROOM_9_Z118_ZONEEQUIPMENTOUTLETNODE,Air,2
 Node,1135,OFFICE_OPEN_9_0_0_Z119_ZONEEQUIPMENTOUTLETNODE,Air,2
 Node,1136,OFFICE_PRIVATE_9_0_1_Z120_ZONEEQUIPMENTOUTLETNODE,Air,2
 Node,1137,STORAGE_9_0_2_Z121_ZONEEQUIPMENTOUTLETNODE,Air,2
 Node,1138,OFFICE_OPEN_9_1_0_Z122_ZONEEQUIPMENTOUTLETNODE,Air,2
 Node,1139,OFFICE_PRIVATE_9_1_1_Z123_ZONEEQUIPMENTOUTLETNODE,Air,2
 Node,1140,STORAGE_9_1_2_Z124_ZONEEQUIPMENTOUTLETNODE,Air,2
 Node,1141,OFFICE_OPEN_9_2_0_Z125_ZONEEQUIPMENTOUTLETNODE,Air,2
 Node,1142,OFFICE_PRIVATE_9_2_1_Z126_ZONEEQUIPMENTOUTLETNODE,Air,2
 Node,1143,STORAGE_9_2_2_Z127_ZONEEQUIPMENTOUTLETNODE,Air,2
 Node,1144,LOBBY_0_Z1_TERMINALINLET,Air,1
 Node,1145,CONFERENCE_0_Z2_TERMINALINLET,Air,1
 Node,1146,BREAK_ROOM_0_Z3_TERMINALINLET,Air,1
 Node,1147,MECHANICAL_0_Z4_TERMINALINLET,Air,1
 Node,1148,OFFICE_OPEN_0_0_0_Z5_TERMINALINLET,Air,1
 Node,1149,OFFICE_PRIVATE_0_0_1_Z6_TERMINALINLET,Air,1
 Node,1150,STORAGE_0_0_2_Z7_TERMINALINLET,Air,1
 Node,1151,OFFICE_OPEN_0_1_0_Z8_TERMINALINLET,Air,1
 Node,1152,OFFICE_PRIVATE_0_1_1_Z9_TERMINALINLET,Air,1
 Node,1153,STORAGE_0_1_2_Z10_TERMINALINLET,Air,1
 Node,1154,OFFICE_OPEN_0_2_0_Z11_TERMINALINLET,Air,1
 Node,1155,OFFICE_PRIVATE_0_2_1_Z12_TERMINALINLET,Air,1
 Node,1156,STORAGE_0_2_2_Z13_TERMINALINLET,Air,1
 Node,1157,LOBBY_1_Z14_TERMINALINLET,Air,1
 Node,1158,CONFERENCE_1_Z15_TERMINALINLET,Air,1
 Node,1159,MECHANICAL_1_Z16_TERMINALINLET,Air,1
 Node,1160,OFFICE_OPEN_1_0_0_Z17_TERMINALINLET,Air,1
 Node,1161,OFFICE_PRIVATE_1_0_1_Z18_TERMINALINLET,Air,1
 Node,1162,STORAGE_1_0_2_Z19_TERMINALINLET,Air,1
 Node,1163,OFFICE_OPEN_1_1_0_Z20_TERMINALINLET,Air,1
 Node,1164,OFFICE_PRIVATE_1_1_1_Z21_TERMINALINLET,Air,1
 Node,1165,STORAGE_1_1_2_Z22_TERMINALINLET,Air,1
 Node,1166,OFFICE_OPEN_1_2_0_Z23_TERMINALINLET,Air,1
 Node,1167,OFFICE_PRIVATE_1_2_1_Z24_TERMINALINLET,Air,1
 Node,1168,STORAGE_1_2_2_Z25_TERMINALINLET,Air,1
 Node,1169,LOBBY_2_Z26_TERMINALINLET,Air,1
 Node,1170,CONFERENCE_2_Z27_TERMINALINLET,Air,1
 Node,1171,BREAK_ROOM_2_Z28_TERMINALINLET,Air,1
 Node,1172,MECHANICAL_2_Z29_TERMINALINLET,Air,1
 Node,1173,OFFICE_OPEN_2_0_0_Z30_TERMINALINLET,Air,1
 Node,1174,OFFICE_PRIVATE_2_0_1_Z31_TERMINALINLET,Air,1
 Node,1175,STORAGE_2_0_2_Z32_TERMINALINLET,Air,1
 Node,1176,OFFICE_OPEN_2_1_0_Z33_TERMINALINLET,Air,1
 Node,1177,OFFICE_PRIVATE_2_1_1_Z34_TERMINALINLET,Air,1
 Node,1178,STORAGE_2_1_2_Z35_TERMINALINLET,Air,1
 Node,1179,OFFICE_OPEN_2_2_0_Z36_TERMINALINLET,Air,1
 Node,1180,OFFICE_PRIVATE_2_2_1_Z37_TERMINALINLET,Air,1
 Node,1181,STORAGE_2_2_2_Z38_TERMINALINLET,Air,1
 Node,1182,LOBBY_3_Z39_TERMINALINLET,Air,1
 Node,1183,CONFERENCE_3_Z40_TERMINALINLET,Air,1
 Node,1184,BREAK_ROOM_3_Z41_TERMINALINLET,Air,1
 Node,1185,MECHANICAL_3_Z42_TERMINALINLET,Air,1
 Node,1186,OFFICE_OPEN_3_0_0_Z43_TERMINALINLET,Air,1
 Node,1187,OFFICE_PRIVATE_3_0_1_Z44_TERMINALINLET,Air,1
 Node,1188,STORAGE_3_0_2_Z45_TERMINALINLET,Air,1
 Node,1189,OFFICE_OPEN_3_1_0_Z46_TERMINALINLET,Air,1
 Node,1190,OFFICE_PRIVATE_3_1_1_Z47_TERMINALINLET,Air,1
 Node,1191,STORAGE_3_1_2_Z48_TERMINALINLET,Air,1
 Node,1192,OFFICE_OPEN_3_2_0_Z49_TERMINALINLET,Air,1
 Node,1193,OFFICE_PRIVATE_3_2_1_Z50_TERMINALINLET,Air,1
 Node,1194,STORAGE_3_2_2_Z51_TERMINALINLET,Air,1
 Node,1195,LOBBY_4_Z52_TERMINALINLET,Air,1
 Node,1196,CONFERENCE_4_Z53_TERMINALINLET,Air,1
 Node,1197,BREAK_ROOM_4_Z54_TERMINALINLET,Air,1
 Node,1198,MECHANICAL_4_Z55_TERMINALINLET,Air,1
 Node,1199,OFFICE_OPEN_4_0_0_Z56_TERMINALINLET,Air,1
 Node,1200,OFFICE_PRIVATE_4_0_1_Z57_TERMINALINLET,Air,1
 Node,1201,STORAGE_4_0_2_Z58_TERMINALINLET,Air,1
 Node,1202,OFFICE_OPEN_4_1_0_Z59_TERMINALINLET,Air,1
 Node,1203,OFFICE_PRIVATE_4_1_1_Z60_TERMINALINLET,Air,1
 Node,1204,STORAGE_4_1_2_Z61_TERMINALINLET,Air,1
 Node,1205,OFFICE_OPEN_4_2_0_Z62_TERMINALINLET,Air,1
 Node,1206,OFFICE_PRIVATE_4_2_1_Z63_TERMINALINLET,Air,1
 Node,1207,STORAGE_4_2_2_Z64_TERMINALINLET,Air,1
 Node,1208,LOBBY_5_Z65_TERMINALINLET,Air,1
 Node,1209,CONFERENCE_5_Z66_TERMINALINLET,Air,1
 Node,1210,BREAK_ROOM_5_Z67_TERMINALINLET,Air,1
 Node,1211,OFFICE_OPEN_5_0_0_Z68_TERMINALINLET,Air,1
 Node,1212,OFFICE_PRIVATE_5_0_1_Z69_TERMINALINLET,Air,1
 Node,1213,STORAGE_5_0_2_Z70_TERMINALINLET,Air,1
 Node,1214,OFFICE_OPEN_5_1_0_Z71_TERMINALINLET,Air,1
 Node,1215,OFFICE_PRIVATE_5_1_1_Z72_TERMINALINLET,Air,1
 Node,1216,STORAGE_5_1_2_Z73_TERMINALINLET,Air,1
 Node,1217,OFFICE_OPEN_5_2_0_Z74_TERMINALINLET,Air,1
 Node,1218,OFFICE_PRIVATE_5_2_1_Z75_TERMINALINLET,Air,1
 Node,1219,STORAGE_5_2_2_Z76_TERMINALINLET,Air,1
 Node,1220,LOBBY_6_Z77_TERMINALINLET,Air,1
 Node,1221,CONFERENCE_6_Z78_TERMINALINLET,Air,1
 Node,1222,BREAK_ROOM_6_Z79_TERMINALINLET,Air,1
 Node,1223,MECHANICAL_6_Z80_TERMINALINLET,Air,1
 Node,1224,OFFICE_OPEN_6_0_0_Z81_TERMINALINLET,Air,1
 Node,1225,OFFICE_PRIVATE_6_0_1_Z82_TERMINALINLET,Air,1
 Node,1226,STORAGE_6_0_2_Z83_TERMINALINLET,Air,1
 Node,1227,OFFICE_OPEN_6_1_0_Z84_TERMINALINLET,Air,1
 Node,1228,OFFICE_PRIVATE_6_1_1_Z85_TERMINALINLET,Air,1
 Node,1229,STORAGE_6_1_2_Z86_TERMINALINLET,Air,1
 Node,1230,OFFICE_OPEN_6_2_0_Z87_TERMINALINLET,Air,1
 Node,1231,OFFICE_PRIVATE_6_2_1_Z88_TERMINALINLET,Air,1
 Node,1232,STORAGE_6_2_2_Z89_TERMINALINLET,Air,1
 Node,1233,LOBBY_7_Z90_TERMINALINLET,Air,1
 Node,1234,CONFERENCE_7_Z91_TERMINALINLET,Air,1
 Node,1235,BREAK_ROOM_7_Z92_TERMINALINLET,Air,1
 Node,1236,MECHANICAL_7_Z93_TERMINALINLET,Air,1
 Node,1237,OFFICE_OPEN_7_0_0_Z94_TERMINALINLET,Air,1
 Node,1238,OFFICE_PRIVATE_7_0_1_Z95_TERMINALINLET,Air,1
 Node,1239,STORAGE_7_0_2_Z96_TERMINALINLET,Air,1
 Node,1240,OFFICE_OPEN_7_1_0_Z97_TERMINALINLET,Air,1
 Node,1241,OFFICE_PRIVATE_7_1_1_Z98_TERMINALINLET,Air,1
 Node,1242,STORAGE_7_1_2_Z99_TERMINALINLET,Air,1
 Node,1243,OFFICE_OPEN_7_2_0_Z100_TERMINALINLET,Air,1
 Node,1244,OFFICE_PRIVATE_7_2_1_Z101_TERMINALINLET,Air,1
 Node,1245,STORAGE_7_2_2_Z102_TERMINALINLET,Air,1
 Node,1246,LOBBY_8_Z103_TERMINALINLET,Air,1
 Node,1247,CONFERENCE_8_Z104_TERMINALINLET,Air,1
 Node,1248,BREAK_ROOM_8_Z105_TERMINALINLET,Air,1
 Node,1249,MECHANICAL_8_Z106_TERMINALINLET,Air,1
 Node,1250,OFFICE_OPEN_8_0_0_Z107_TERMINALINLET,Air,1
 Node,1251,OFFICE_PRIVATE_8_0_1_Z108_TERMINALINLET,Air,1
 Node,1252,STORAGE_8_0_2_Z109_TERMINALINLET,Air,1
 Node,1253,OFFICE_OPEN_8_1_0_Z110_TERMINALINLET,Air,1
 Node,1254,OFFICE_PRIVATE_8_1_1_Z111_TERMINALINLET,Air,1
 Node,1255,STORAGE_8_1_2_Z112_TERMINALINLET,Air,1
 Node,1256,OFFICE_OPEN_8_2_0_Z113_TERMINALINLET,Air,1
 Node,1257,OFFICE_PRIVATE_8_2_1_Z114_TERMINALINLET,Air,1
 Node,1258,STORAGE_8_2_2_Z115_TERMINALINLET,Air,1
 Node,1259,LOBBY_9_Z116_TERMINALINLET,Air,1
 Node,1260,CONFERENCE_9_Z117_TERMINALINLET,Air,1
 Node,1261,BREAK_ROOM_9_Z118_TERMINALINLET,Air,1
 Node,1262,OFFICE_OPEN_9_0_0_Z119_TERMINALINLET,Air,1
 Node,1263,OFFICE_PRIVATE_9_0_1_Z120_TERMINALINLET,Air,1
 Node,1264,STORAGE_9_0_2_Z121_TERMINALINLET,Air,1
 Node,1265,OFFICE_OPEN_9_1_0_Z122_TERMINALINLET,Air,1
 Node,1266,OFFICE_PRIVATE_9_1_1_Z123_TERMINALINLET,Air,1
 Node,1267,STORAGE_9_1_2_Z124_TERMINALINLET,Air,1
 Node,1268,OFFICE_OPEN_9_2_0_Z125_TERMINALINLET,Air,1
 Node,1269,OFFICE_PRIVATE_9_2_1_Z126_TERMINALINLET,Air,1
 Node,1270,STORAGE_9_2_2_Z127_TERMINALINLET,Air,1
 Node,1271,LOBBY_0_Z1_TERMINALOUTLET,Air,1
 Node,1272,CONFERENCE_0_Z2_TERMINALOUTLET,Air,1
 Node,1273,BREAK_ROOM_0_Z3_TERMINALOUTLET,Air,1
 Node,1274,MECHANICAL_0_Z4_TERMINALOUTLET,Air,1
 Node,1275,OFFICE_OPEN_0_0_0_Z5_TERMINALOUTLET,Air,1
 Node,1276,OFFICE_PRIVATE_0_0_1_Z6_TERMINALOUTLET,Air,1
 Node,1277,STORAGE_0_0_2_Z7_TERMINALOUTLET,Air,1
 Node,1278,OFFICE_OPEN_0_1_0_Z8_TERMINALOUTLET,Air,1
 Node,1279,OFFICE_PRIVATE_0_1_1_Z9_TERMINALOUTLET,Air,1
 Node,1280,STORAGE_0_1_2_Z10_TERMINALOUTLET,Air,1
 Node,1281,OFFICE_OPEN_0_2_0_Z11_TERMINALOUTLET,Air,1
 Node,1282,OFFICE_PRIVATE_0_2_1_Z12_TERMINALOUTLET,Air,1
 Node,1283,STORAGE_0_2_2_Z13_TERMINALOUTLET,Air,1
 Node,1284,LOBBY_1_Z14_TERMINALOUTLET,Air,1
 Node,1285,CONFERENCE_1_Z15_TERMINALOUTLET,Air,1
 Node,1286,MECHANICAL_1_Z16_TERMINALOUTLET,Air,1
 Node,1287,OFFICE_OPEN_1_0_0_Z17_TERMINALOUTLET,Air,1
 Node,1288,OFFICE_PRIVATE_1_0_1_Z18_TERMINALOUTLET,Air,1
 Node,1289,STORAGE_1_0_2_Z19_TERMINALOUTLET,Air,1
 Node,1290,OFFICE_OPEN_1_1_0_Z20_TERMINALOUTLET,Air,1
 Node,1291,OFFICE_PRIVATE_1_1_1_Z21_TERMINALOUTLET,Air,1
 Node,1292,STORAGE_1_1_2_Z22_TERMINALOUTLET,Air,1
 Node,1293,OFFICE_OPEN_1_2_0_Z23_TERMINALOUTLET,Air,1
 Node,1294,OFFICE_PRIVATE_1_2_1_Z24_TERMINALOUTLET,Air,1
 Node,1295,STORAGE_1_2_2_Z25_TERMINALOUTLET,Air,1
 Node,1296,LOBBY_2_Z26_TERMINALOUTLET,Air,1
 Node,1297,CONFERENCE_2_Z27_TERMINALOUTLET,Air,1
 Node,1298,BREAK_ROOM_2_Z28_TERMINALOUTLET,Air,1
 Node,1299,MECHANICAL_2_Z29_TERMINALOUTLET,Air,1
 Node,1300,OFFICE_OPEN_2_0_0_Z30_TERMINALOUTLET,Air,1
 Node,1301,OFFICE_PRIVATE_2_0_1_Z31_TERMINALOUTLET,Air,1
 Node,1302,STORAGE_2_0_2_Z32_TERMINALOUTLET,Air,1
 Node,1303,OFFICE_OPEN_2_1_0_Z33_TERMINALOUTLET,Air,1
 Node,1304,OFFICE_PRIVATE_2_1_1_Z34_TERMINALOUTLET,Air,1
 Node,1305,STORAGE_2_1_2_Z35_TERMINALOUTLET,Air,1
 Node,1306,OFFICE_OPEN_2_2_0_Z36_TERMINALOUTLET,Air,1
 Node,1307,OFFICE_PRIVATE_2_2_1_Z37_TERMINALOUTLET,Air,1
 Node,1308,STORAGE_2_2_2_Z38_TERMINALOUTLET,Air,1
 Node,1309,LOBBY_3_Z39_TERMINALOUTLET,Air,1
 Node,1310,CONFERENCE_3_Z40_TERMINALOUTLET,Air,1
 Node,1311,BREAK_ROOM_3_Z41_TERMINALOUTLET,Air,1
 Node,1312,MECHANICAL_3_Z42_TERMINALOUTLET,Air,1
 Node,1313,OFFICE_OPEN_3_0_0_Z43_TERMINALOUTLET,Air,1
 Node,1314,OFFICE_PRIVATE_3_0_1_Z44_TERMINALOUTLET,Air,1
 Node,1315,STORAGE_3_0_2_Z45_TERMINALOUTLET,Air,1
 Node,1316,OFFICE_OPEN_3_1_0_Z46_TERMINALOUTLET,Air,1
 Node,1317,OFFICE_PRIVATE_3_1_1_Z47_TERMINALOUTLET,Air,1
 Node,1318,STORAGE_3_1_2_Z48_TERMINALOUTLET,Air,1
 Node,1319,OFFICE_OPEN_3_2_0_Z49_TERMINALOUTLET,Air,1
 Node,1320,OFFICE_PRIVATE_3_2_1_Z50_TERMINALOUTLET,Air,1
 Node,1321,STORAGE_3_2_2_Z51_TERMINALOUTLET,Air,1
 Node,1322,LOBBY_4_Z52_TERMINALOUTLET,Air,1
 Node,1323,CONFERENCE_4_Z53_TERMINALOUTLET,Air,1
 Node,1324,BREAK_ROOM_4_Z54_TERMINALOUTLET,Air,1
 Node,1325,MECHANICAL_4_Z55_TERMINALOUTLET,Air,1
 Node,1326,OFFICE_OPEN_4_0_0_Z56_TERMINALOUTLET,Air,1
 Node,1327,OFFICE_PRIVATE_4_0_1_Z57_TERMINALOUTLET,Air,1
 Node,1328,STORAGE_4_0_2_Z58_TERMINALOUTLET,Air,1
 Node,1329,OFFICE_OPEN_4_1_0_Z59_TERMINALOUTLET,Air,1
 Node,1330,OFFICE_PRIVATE_4_1_1_Z60_TERMINALOUTLET,Air,1
 Node,1331,STORAGE_4_1_2_Z61_TERMINALOUTLET,Air,1
 Node,1332,OFFICE_OPEN_4_2_0_Z62_TERMINALOUTLET,Air,1
 Node,1333,OFFICE_PRIVATE_4_2_1_Z63_TERMINALOUTLET,Air,1
 Node,1334,STORAGE_4_2_2_Z64_TERMINALOUTLET,Air,1
 Node,1335,LOBBY_5_Z65_TERMINALOUTLET,Air,1
 Node,1336,CONFERENCE_5_Z66_TERMINALOUTLET,Air,1
 Node,1337,BREAK_ROOM_5_Z67_TERMINALOUTLET,Air,1
 Node,1338,OFFICE_OPEN_5_0_0_Z68_TERMINALOUTLET,Air,1
 Node,1339,OFFICE_PRIVATE_5_0_1_Z69_TERMINALOUTLET,Air,1
 Node,1340,STORAGE_5_0_2_Z70_TERMINALOUTLET,Air,1
 Node,1341,OFFICE_OPEN_5_1_0_Z71_TERMINALOUTLET,Air,1
 Node,1342,OFFICE_PRIVATE_5_1_1_Z72_TERMINALOUTLET,Air,1
 Node,1343,STORAGE_5_1_2_Z73_TERMINALOUTLET,Air,1
 Node,1344,OFFICE_OPEN_5_2_0_Z74_TERMINALOUTLET,Air,1
 Node,1345,OFFICE_PRIVATE_5_2_1_Z75_TERMINALOUTLET,Air,1
 Node,1346,STORAGE_5_2_2_Z76_TERMINALOUTLET,Air,1
 Node,1347,LOBBY_6_Z77_TERMINALOUTLET,Air,1
 Node,1348,CONFERENCE_6_Z78_TERMINALOUTLET,Air,1
 Node,1349,BREAK_ROOM_6_Z79_TERMINALOUTLET,Air,1
 Node,1350,MECHANICAL_6_Z80_TERMINALOUTLET,Air,1
 Node,1351,OFFICE_OPEN_6_0_0_Z81_TERMINALOUTLET,Air,1
 Node,1352,OFFICE_PRIVATE_6_0_1_Z82_TERMINALOUTLET,Air,1
 Node,1353,STORAGE_6_0_2_Z83_TERMINALOUTLET,Air,1
 Node,1354,OFFICE_OPEN_6_1_0_Z84_TERMINALOUTLET,Air,1
 Node,1355,OFFICE_PRIVATE_6_1_1_Z85_TERMINALOUTLET,Air,1
 Node,1356,STORAGE_6_1_2_Z86_TERMINALOUTLET,Air,1
 Node,1357,OFFICE_OPEN_6_2_0_Z87_TERMINALOUTLET,Air,1
 Node,1358,OFFICE_PRIVATE_6_2_1_Z88_TERMINALOUTLET,Air,1
 Node,1359,STORAGE_6_2_2_Z89_TERMINALOUTLET,Air,1
 Node,1360,LOBBY_7_Z90_TERMINALOUTLET,Air,1
 Node,1361,CONFERENCE_7_Z91_TERMINALOUTLET,Air,1
 Node,1362,BREAK_ROOM_7_Z92_TERMINALOUTLET,Air,1
 Node,1363,MECHANICAL_7_Z93_TERMINALOUTLET,Air,1
 Node,1364,OFFICE_OPEN_7_0_0_Z94_TERMINALOUTLET,Air,1
 Node,1365,OFFICE_PRIVATE_7_0_1_Z95_TERMINALOUTLET,Air,1
 Node,1366,STORAGE_7_0_2_Z96_TERMINALOUTLET,Air,1
 Node,1367,OFFICE_OPEN_7_1_0_Z97_TERMINALOUTLET,Air,1
 Node,1368,OFFICE_PRIVATE_7_1_1_Z98_TERMINALOUTLET,Air,1
 Node,1369,STORAGE_7_1_2_Z99_TERMINALOUTLET,Air,1
 Node,1370,OFFICE_OPEN_7_2_0_Z100_TERMINALOUTLET,Air,1
 Node,1371,OFFICE_PRIVATE_7_2_1_Z101_TERMINALOUTLET,Air,1
 Node,1372,STORAGE_7_2_2_Z102_TERMINALOUTLET,Air,1
 Node,1373,LOBBY_8_Z103_TERMINALOUTLET,Air,1
 Node,1374,CONFERENCE_8_Z104_TERMINALOUTLET,Air,1
 Node,1375,BREAK_ROOM_8_Z105_TERMINALOUTLET,Air,1
 Node,1376,MECHANICAL_8_Z106_TERMINALOUTLET,Air,1
 Node,1377,OFFICE_OPEN_8_0_0_Z107_TERMINALOUTLET,Air,1
 Node,1378,OFFICE_PRIVATE_8_0_1_Z108_TERMINALOUTLET,Air,1
 Node,1379,STORAGE_8_0_2_Z109_TERMINALOUTLET,Air,1
 Node,1380,OFFICE_OPEN_8_1_0_Z110_TERMINALOUTLET,Air,1
 Node,1381,OFFICE_PRIVATE_8_1_1_Z111_TERMINALOUTLET,Air,1
 Node,1382,STORAGE_8_1_2_Z112_TERMINALOUTLET,Air,1
 Node,1383,OFFICE_OPEN_8_2_0_Z113_TERMINALOUTLET,Air,1
 Node,1384,OFFICE_PRIVATE_8_2_1_Z114_TERMINALOUTLET,Air,1
 Node,1385,STORAGE_8_2_2_Z115_TERMINALOUTLET,Air,1
 Node,1386,LOBBY_9_Z116_TERMINALOUTLET,Air,1
 Node,1387,CONFERENCE_9_Z117_TERMINALOUTLET,Air,1
 Node,1388,BREAK_ROOM_9_Z118_TERMINALOUTLET,Air,1
 Node,1389,OFFICE_OPEN_9_0_0_Z119_TERMINALOUTLET,Air,1
 Node,1390,OFFICE_PRIVATE_9_0_1_Z120_TERMINALOUTLET,Air,1
 Node,1391,STORAGE_9_0_2_Z121_TERMINALOUTLET,Air,1
 Node,1392,OFFICE_OPEN_9_1_0_Z122_TERMINALOUTLET,Air,1
 Node,1393,OFFICE_PRIVATE_9_1_1_Z123_TERMINALOUTLET,Air,1
 Node,1394,STORAGE_9_1_2_Z124_TERMINALOUTLET,Air,1
 Node,1395,OFFICE_OPEN_9_2_0_Z125_TERMINALOUTLET,Air,1
 Node,1396,OFFICE_PRIVATE_9_2_1_Z126_TERMINALOUTLET,Air,1
 Node,1397,STORAGE_9_2_2_Z127_TERMINALOUTLET,Air,1
! ===============================================================
! Suspicious nodes have 0 references.  It is normal for some nodes, however.
! Listing nodes with 0 references (culled from previous list):
! <Suspicious Node>,<NodeNumber>,<Node Name>,<Node Fluid Type>,<# Times Node Referenced After Definition>
 Suspicious Node,636,LOBBY_0 AIR NODE,Air,0
 Suspicious Node,638,CONFERENCE_0 AIR NODE,Air,0
 Suspicious Node,640,BREAK_ROOM_0 AIR NODE,Air,0
 Suspicious Node,642,MECHANICAL_0 AIR NODE,Air,0
 Suspicious Node,644,OFFICE_OPEN_0_0_0 AIR NODE,Air,0
 Suspicious Node,646,OFFICE_PRIVATE_0_0_1 AIR NODE,Air,0
 Suspicious Node,648,STORAGE_0_0_2 AIR NODE,Air,0
 Suspicious Node,650,OFFICE_OPEN_0_1_0 AIR NODE,Air,0
 Suspicious Node,652,OFFICE_PRIVATE_0_1_1 AIR NODE,Air,0
 Suspicious Node,654,STORAGE_0_1_2 AIR NODE,Air,0
 Suspicious Node,656,OFFICE_OPEN_0_2_0 AIR NODE,Air,0
 Suspicious Node,658,OFFICE_PRIVATE_0_2_1 AIR NODE,Air,0
 Suspicious Node,660,STORAGE_0_2_2 AIR NODE,Air,0
 Suspicious Node,662,LOBBY_1 AIR NODE,Air,0
 Suspicious Node,664,CONFERENCE_1 AIR NODE,Air,0
 Suspicious Node,666,MECHANICAL_1 AIR NODE,Air,0
 Suspicious Node,668,OFFICE_OPEN_1_0_0 AIR NODE,Air,0
 Suspicious Node,670,OFFICE_PRIVATE_1_0_1 AIR NODE,Air,0
 Suspicious Node,672,STORAGE_1_0_2 AIR NODE,Air,0
 Suspicious Node,674,OFFICE_OPEN_1_1_0 AIR NODE,Air,0
 Suspicious Node,676,OFFICE_PRIVATE_1_1_1 AIR NODE,Air,0
 Suspicious Node,678,STORAGE_1_1_2 AIR NODE,Air,0
 Suspicious Node,680,OFFICE_OPEN_1_2_0 AIR NODE,Air,0
 Suspicious Node,682,OFFICE_PRIVATE_1_2_1 AIR NODE,Air,0
 Suspicious Node,684,STORAGE_1_2_2 AIR NODE,Air,0
 Suspicious Node,686,LOBBY_2 AIR NODE,Air,0
 Suspicious Node,688,CONFERENCE_2 AIR NODE,Air,0
 Suspicious Node,690,BREAK_ROOM_2 AIR NODE,Air,0
 Suspicious Node,692,MECHANICAL_2 AIR NODE,Air,0
 Suspicious Node,694,OFFICE_OPEN_2_0_0 AIR NODE,Air,0
 Suspicious Node,696,OFFICE_PRIVATE_2_0_1 AIR NODE,Air,0
 Suspicious Node,698,STORAGE_2_0_2 AIR NODE,Air,0
 Suspicious Node,700,OFFICE_OPEN_2_1_0 AIR NODE,Air,0
 Suspicious Node,702,OFFICE_PRIVATE_2_1_1 AIR NODE,Air,0
 Suspicious Node,704,STORAGE_2_1_2 AIR NODE,Air,0
 Suspicious Node,706,OFFICE_OPEN_2_2_0 AIR NODE,Air,0
 Suspicious Node,708,OFFICE_PRIVATE_2_2_1 AIR NODE,Air,0
 Suspicious Node,710,STORAGE_2_2_2 AIR NODE,Air,0
 Suspicious Node,712,LOBBY_3 AIR NODE,Air,0
 Suspicious Node,714,CONFERENCE_3 AIR NODE,Air,0
 Suspicious Node,716,BREAK_ROOM_3 AIR NODE,Air,0
 Suspicious Node,718,MECHANICAL_3 AIR NODE,Air,0
 Suspicious Node,720,OFFICE_OPEN_3_0_0 AIR NODE,Air,0
 Suspicious Node,722,OFFICE_PRIVATE_3_0_1 AIR NODE,Air,0
 Suspicious Node,724,STORAGE_3_0_2 AIR NODE,Air,0
 Suspicious Node,726,OFFICE_OPEN_3_1_0 AIR NODE,Air,0
 Suspicious Node,728,OFFICE_PRIVATE_3_1_1 AIR NODE,Air,0
 Suspicious Node,730,STORAGE_3_1_2 AIR NODE,Air,0
 Suspicious Node,732,OFFICE_OPEN_3_2_0 AIR NODE,Air,0
 Suspicious Node,734,OFFICE_PRIVATE_3_2_1 AIR NODE,Air,0
 Suspicious Node,736,STORAGE_3_2_2 AIR NODE,Air,0
 Suspicious Node,738,LOBBY_4 AIR NODE,Air,0
 Suspicious Node,740,CONFERENCE_4 AIR NODE,Air,0
 Suspicious Node,742,BREAK_ROOM_4 AIR NODE,Air,0
 Suspicious Node,744,MECHANICAL_4 AIR NODE,Air,0
 Suspicious Node,746,OFFICE_OPEN_4_0_0 AIR NODE,Air,0
 Suspicious Node,748,OFFICE_PRIVATE_4_0_1 AIR NODE,Air,0
 Suspicious Node,750,STORAGE_4_0_2 AIR NODE,Air,0
 Suspicious Node,752,OFFICE_OPEN_4_1_0 AIR NODE,Air,0
 Suspicious Node,754,OFFICE_PRIVATE_4_1_1 AIR NODE,Air,0
 Suspicious Node,756,STORAGE_4_1_2 AIR NODE,Air,0
 Suspicious Node,758,OFFICE_OPEN_4_2_0 AIR NODE,Air,0
 Suspicious Node,760,OFFICE_PRIVATE_4_2_1 AIR NODE,Air,0
 Suspicious Node,762,STORAGE_4_2_2 AIR NODE,Air,0
 Suspicious Node,764,LOBBY_5 AIR NODE,Air,0
 Suspicious Node,766,CONFERENCE_5 AIR NODE,Air,0
 Suspicious Node,768,BREAK_ROOM_5 AIR NODE,Air,0
 Suspicious Node,770,OFFICE_OPEN_5_0_0 AIR NODE,Air,0
 Suspicious Node,772,OFFICE_PRIVATE_5_0_1 AIR NODE,Air,0
 Suspicious Node,774,STORAGE_5_0_2 AIR NODE,Air,0
 Suspicious Node,776,OFFICE_OPEN_5_1_0 AIR NODE,Air,0
 Suspicious Node,778,OFFICE_PRIVATE_5_1_1 AIR NODE,Air,0
 Suspicious Node,780,STORAGE_5_1_2 AIR NODE,Air,0
 Suspicious Node,782,OFFICE_OPEN_5_2_0 AIR NODE,Air,0
 Suspicious Node,784,OFFICE_PRIVATE_5_2_1 AIR NODE,Air,0
 Suspicious Node,786,STORAGE_5_2_2 AIR NODE,Air,0
 Suspicious Node,788,LOBBY_6 AIR NODE,Air,0
 Suspicious Node,790,CONFERENCE_6 AIR NODE,Air,0
 Suspicious Node,792,BREAK_ROOM_6 AIR NODE,Air,0
 Suspicious Node,794,MECHANICAL_6 AIR NODE,Air,0
 Suspicious Node,796,OFFICE_OPEN_6_0_0 AIR NODE,Air,0
 Suspicious Node,798,OFFICE_PRIVATE_6_0_1 AIR NODE,Air,0
 Suspicious Node,800,STORAGE_6_0_2 AIR NODE,Air,0
 Suspicious Node,802,OFFICE_OPEN_6_1_0 AIR NODE,Air,0
 Suspicious Node,804,OFFICE_PRIVATE_6_1_1 AIR NODE,Air,0
 Suspicious Node,806,STORAGE_6_1_2 AIR NODE,Air,0
 Suspicious Node,808,OFFICE_OPEN_6_2_0 AIR NODE,Air,0
 Suspicious Node,810,OFFICE_PRIVATE_6_2_1 AIR NODE,Air,0
 Suspicious Node,812,STORAGE_6_2_2 AIR NODE,Air,0
 Suspicious Node,814,LOBBY_7 AIR NODE,Air,0
 Suspicious Node,816,CONFERENCE_7 AIR NODE,Air,0
 Suspicious Node,818,BREAK_ROOM_7 AIR NODE,Air,0
 Suspicious Node,820,MECHANICAL_7 AIR NODE,Air,0
 Suspicious Node,822,OFFICE_OPEN_7_0_0 AIR NODE,Air,0
 Suspicious Node,824,OFFICE_PRIVATE_7_0_1 AIR NODE,Air,0
 Suspicious Node,826,STORAGE_7_0_2 AIR NODE,Air,0
 Suspicious Node,828,OFFICE_OPEN_7_1_0 AIR NODE,Air,0
 Suspicious Node,830,OFFICE_PRIVATE_7_1_1 AIR NODE,Air,0
 Suspicious Node,832,STORAGE_7_1_2 AIR NODE,Air,0
 Suspicious Node,834,OFFICE_OPEN_7_2_0 AIR NODE,Air,0
 Suspicious Node,836,OFFICE_PRIVATE_7_2_1 AIR NODE,Air,0
 Suspicious Node,838,STORAGE_7_2_2 AIR NODE,Air,0
 Suspicious Node,840,LOBBY_8 AIR NODE,Air,0
 Suspicious Node,842,CONFERENCE_8 AIR NODE,Air,0
 Suspicious Node,844,BREAK_ROOM_8 AIR NODE,Air,0
 Suspicious Node,846,MECHANICAL_8 AIR NODE,Air,0
 Suspicious Node,848,OFFICE_OPEN_8_0_0 AIR NODE,Air,0
 Suspicious Node,850,OFFICE_PRIVATE_8_0_1 AIR NODE,Air,0
 Suspicious Node,852,STORAGE_8_0_2 AIR NODE,Air,0
 Suspicious Node,854,OFFICE_OPEN_8_1_0 AIR NODE,Air,0
 Suspicious Node,856,OFFICE_PRIVATE_8_1_1 AIR NODE,Air,0
 Suspicious Node,858,STORAGE_8_1_2 AIR NODE,Air,0
 Suspicious Node,860,OFFICE_OPEN_8_2_0 AIR NODE,Air,0
 Suspicious Node,862,OFFICE_PRIVATE_8_2_1 AIR NODE,Air,0
 Suspicious Node,864,STORAGE_8_2_2 AIR NODE,Air,0
 Suspicious Node,866,LOBBY_9 AIR NODE,Air,0
 Suspicious Node,868,CONFERENCE_9 AIR NODE,Air,0
 Suspicious Node,870,BREAK_ROOM_9 AIR NODE,Air,0
 Suspicious Node,872,OFFICE_OPEN_9_0_0 AIR NODE,Air,0
 Suspicious Node,874,OFFICE_PRIVATE_9_0_1 AIR NODE,Air,0
 Suspicious Node,876,STORAGE_9_0_2 AIR NODE,Air,0
 Suspicious Node,878,OFFICE_OPEN_9_1_0 AIR NODE,Air,0
 Suspicious Node,880,OFFICE_PRIVATE_9_1_1 AIR NODE,Air,0
 Suspicious Node,882,STORAGE_9_1_2 AIR NODE,Air,0
 Suspicious Node,884,OFFICE_OPEN_9_2_0 AIR NODE,Air,0
 Suspicious Node,886,OFFICE_PRIVATE_9_2_1 AIR NODE,Air,0
 Suspicious Node,888,STORAGE_9_2_2 AIR NODE,Air,0
! ===============================================================
! <#Branch Lists>,<Number of Branch Lists>
 #Branch Lists,127
! <Branch List>,<Branch List Count>,<Branch List Name>,<Loop Name>,<Loop Type>,<Number of Branches>
! <Branch>,<Branch Count>,<Branch Name>,<Loop Name>,<Loop Type>,<Branch Inlet Node Name>,<Branch Outlet Node Name>
 Branch List,1,LOBBY_0_Z1_BRANCHLIST,LOBBY_0_Z1_AIRLOOP,Air,1
   Branch,1,LOBBY_0_Z1_MAINBRANCH,LOBBY_0_Z1_AIRLOOP,Air,LOBBY_0_Z1_SUPPLYINLET,LOBBY_0_Z1_SUPPLYEQUIPMENTOUTLETNODE
 Branch List,2,CONFERENCE_0_Z2_BRANCHLIST,CONFERENCE_0_Z2_AIRLOOP,Air,1
   Branch,1,CONFERENCE_0_Z2_MAINBRANCH,CONFERENCE_0_Z2_AIRLOOP,Air,CONFERENCE_0_Z2_SUPPLYINLET,CONFERENCE_0_Z2_SUPPLYEQUIPMENTOUTLETNODE
 Branch List,3,BREAK_ROOM_0_Z3_BRANCHLIST,BREAK_ROOM_0_Z3_AIRLOOP,Air,1
[...]
 Non-Parent Node Connection,CONFERENCE_4_Z53_SUPPLYINLET,COIL:COOLING:DX:SINGLESPEED,CONFERENCE_4_Z53_COOLINGCOILDX,Inlet,1
 Non-Parent Node Connection,CONFERENCE_4_Z53_COOLC-HEATCNODE,COIL:COOLING:DX:SINGLESPEED,CONFERENCE_4_Z53_COOLINGCOILDX,Outlet,1
 Non-Parent Node Connection,BREAK_ROOM_4_Z54_SUPPLYINLET,COIL:COOLING:DX:SINGLESPEED,BREAK_ROOM_4_Z54_COOLINGCOILDX,Inlet,1
 Non-Parent Node Connection,BREAK_ROOM_4_Z54_COOLC-HEATCNODE,COIL:COOLING:DX:SINGLESPEED,BREAK_ROOM_4_Z54_COOLINGCOILDX,Outlet,1
 Non-Parent Node Connection,MECHANICAL_4_Z55_SUPPLYINLET,COIL:COOLING:DX:SINGLESPEED,MECHANICAL_4_Z55_COOLINGCOILDX,Inlet,1
 Non-Parent Node Connection,MECHANICAL_4_Z55_COOLC-HEATCNODE,COIL:COOLING:DX:SINGLESPEED,MECHANICAL_4_Z55_COOLINGCOILDX,Outlet,1
 Non-Parent Node Connection,OFFICE_OPEN_4_0_0_Z56_SUPPLYINLET,COIL:COOLING:DX:SINGLESPEED,OFFICE_OPEN_4_0_0_Z56_COOLINGCOILDX,Inlet,1
 Non-Parent Node Connection,OFFICE_OPEN_4_0_0_Z56_COOLC-HEATCNODE,COIL:COOLING:DX:SINGLESPEED,OFFICE_OPEN_4_0_0_Z56_COOLINGCOILDX,Outlet,1
 Non-Parent Node Connection,OFFICE_PRIVATE_4_0_1_Z57_SUPPLYINLET,COIL:COOLING:DX:SINGLESPEED,OFFICE_PRIVATE_4_0_1_Z57_COOLINGCOILDX,Inlet,1
 Non-Parent Node Connection,OFFICE_PRIVATE_4_0_1_Z57_COOLC-HEATCNODE,COIL:COOLING:DX:SINGLESPEED,OFFICE_PRIVATE_4_0_1_Z57_COOLINGCOILDX,Outlet,1
 Non-Parent Node Connection,STORAGE_4_0_2_Z58_SUPPLYINLET,COIL:COOLING:DX:SINGLESPEED,STORAGE_4_0_2_Z58_COOLINGCOILDX,Inlet,1
 Non-Parent Node Connection,STORAGE_4_0_2_Z58_COOLC-HEATCNODE,COIL:COOLING:DX:SINGLESPEED,STORAGE_4_0_2_Z58_COOLINGCOILDX,Outlet,1
 Non-Parent Node Connection,OFFICE_OPEN_4_1_0_Z59_SUPPLYINLET,COIL:COOLING:DX:SINGLESPEED,OFFICE_OPEN_4_1_0_Z59_COOLINGCOILDX,Inlet,1
 Non-Parent Node Connection,OFFICE_OPEN_4_1_0_Z59_COOLC-HEATCNODE,COIL:COOLING:DX:SINGLESPEED,OFFICE_OPEN_4_1_0_Z59_COOLINGCOILDX,Outlet,1
 Non-Parent Node Connection,OFFICE_PRIVATE_4_1_1_Z60_SUPPLYINLET,COIL:COOLING:DX:SINGLESPEED,OFFICE_PRIVATE_4_1_1_Z60_COOLINGCOILDX,Inlet,1
 Non-Parent Node Connection,OFFICE_PRIVATE_4_1_1_Z60_COOLC-HEATCNODE,COIL:COOLING:DX:SINGLESPEED,OFFICE_PRIVATE_4_1_1_Z60_COOLINGCOILDX,Outlet,1
 Non-Parent Node Connection,STORAGE_4_1_2_Z61_SUPPLYINLET,COIL:COOLING:DX:SINGLESPEED,STORAGE_4_1_2_Z61_COOLINGCOILDX,Inlet,1
 Non-Parent Node Connection,STORAGE_4_1_2_Z61_COOLC-HEATCNODE,COIL:COOLING:DX:SINGLESPEED,STORAGE_4_1_2_Z61_COOLINGCOILDX,Outlet,1
 Non-Parent Node Connection,OFFICE_OPEN_4_2_0_Z62_SUPPLYINLET,COIL:COOLING:DX:SINGLESPEED,OFFICE_OPEN_4_2_0_Z62_COOLINGCOILDX,Inlet,1
 Non-Parent Node Connection,OFFICE_OPEN_4_2_0_Z62_COOLC-HEATCNODE,COIL:COOLING:DX:SINGLESPEED,OFFICE_OPEN_4_2_0_Z62_COOLINGCOILDX,Outlet,1
 Non-Parent Node Connection,OFFICE_PRIVATE_4_2_1_Z63_SUPPLYINLET,COIL:COOLING:DX:SINGLESPEED,OFFICE_PRIVATE_4_2_1_Z63_COOLINGCOILDX,Inlet,1
 Non-Parent Node Connection,OFFICE_PRIVATE_4_2_1_Z63_COOLC-HEATCNODE,COIL:COOLING:DX:SINGLESPEED,OFFICE_PRIVATE_4_2_1_Z63_COOLINGCOILDX,Outlet,1
 Non-Parent Node Connection,STORAGE_4_2_2_Z64_SUPPLYINLET,COIL:COOLING:DX:SINGLESPEED,STORAGE_4_2_2_Z64_COOLINGCOILDX,Inlet,1
 Non-Parent Node Connection,STORAGE_4_2_2_Z64_COOLC-HEATCNODE,COIL:COOLING:DX:SINGLESPEED,STORAGE_4_2_2_Z64_COOLINGCOILDX,Outlet,1
 Non-Parent Node Connection,LOBBY_5_Z65_SUPPLYINLET,COIL:COOLING:DX:SINGLESPEED,LOBBY_5_Z65_COOLINGCOILDX,Inlet,1
 Non-Parent Node Connection,LOBBY_5_Z65_COOLC-HEATCNODE,COIL:COOLING:DX:SINGLESPEED,LOBBY_5_Z65_COOLINGCOILDX,Outlet,1
 Non-Parent Node Connection,CONFERENCE_5_Z66_SUPPLYINLET,COIL:COOLING:DX:SINGLESPEED,CONFERENCE_5_Z66_COOLINGCOILDX,Inlet,1
 Non-Parent Node Connection,CONFERENCE_5_Z66_COOLC-HEATCNODE,COIL:COOLING:DX:SINGLESPEED,CONFERENCE_5_Z66_COOLINGCOILDX,Outlet,1
 Non-Parent Node Connection,BREAK_ROOM_5_Z67_SUPPLYINLET,COIL:COOLING:DX:SINGLESPEED,BREAK_ROOM_5_Z67_COOLINGCOILDX,Inlet,1
 Non-Parent Node Connection,BREAK_ROOM_5_Z67_COOLC-HEATCNODE,COIL:COOLING:DX:SINGLESPEED,BREAK_ROOM_5_Z67_COOLINGCOILDX,Outlet,1
 Non-Parent Node Connection,OFFICE_OPEN_5_0_0_Z68_SUPPLYINLET,COIL:COOLING:DX:SINGLESPEED,OFFICE_OPEN_5_0_0_Z68_COOLINGCOILDX,Inlet,1
 Non-Parent Node Connection,OFFICE_OPEN_5_0_0_Z68_COOLC-HEATCNODE,COIL:COOLING:DX:SINGLESPEED,OFFICE_OPEN_5_0_0_Z68_COOLINGCOILDX,Outlet,1
 Non-Parent Node Connection,OFFICE_PRIVATE_5_0_1_Z69_SUPPLYINLET,COIL:COOLING:DX:SINGLESPEED,OFFICE_PRIVATE_5_0_1_Z69_COOLINGCOILDX,Inlet,1
 Non-Parent Node Connection,OFFICE_PRIVATE_5_0_1_Z69_COOLC-HEATCNODE,COIL:COOLING:DX:SINGLESPEED,OFFICE_PRIVATE_5_0_1_Z69_COOLINGCOILDX,Outlet,1
 Non-Parent Node Connection,STORAGE_5_0_2_Z70_SUPPLYINLET,COIL:COOLING:DX:SINGLESPEED,STORAGE_5_0_2_Z70_COOLINGCOILDX,Inlet,1
 Non-Parent Node Connection,STORAGE_5_0_2_Z70_COOLC-HEATCNODE,COIL:COOLING:DX:SINGLESPEED,STORAGE_5_0_2_Z70_COOLINGCOILDX,Outlet,1
 Non-Parent Node Connection,OFFICE_OPEN_5_1_0_Z71_SUPPLYINLET,COIL:COOLING:DX:SINGLESPEED,OFFICE_OPEN_5_1_0_Z71_COOLINGCOILDX,Inlet,1
 Non-Parent Node Connection,OFFICE_OPEN_5_1_0_Z71_COOLC-HEATCNODE,COIL:COOLING:DX:SINGLESPEED,OFFICE_OPEN_5_1_0_Z71_COOLINGCOILDX,Outlet,1
 Non-Parent Node Connection,OFFICE_PRIVATE_5_1_1_Z72_SUPPLYINLET,COIL:COOLING:DX:SINGLESPEED,OFFICE_PRIVATE_5_1_1_Z72_COOLINGCOILDX,Inlet,1
 Non-Parent Node Connection,OFFICE_PRIVATE_5_1_1_Z72_COOLC-HEATCNODE,COIL:COOLING:DX:SINGLESPEED,OFFICE_PRIVATE_5_1_1_Z72_COOLINGCOILDX,Outlet,1
 Non-Parent Node Connection,STORAGE_5_1_2_Z73_SUPPLYINLET,COIL:COOLING:DX:SINGLESPEED,STORAGE_5_1_2_Z73_COOLINGCOILDX,Inlet,1
 Non-Parent Node Connection,STORAGE_5_1_2_Z73_COOLC-HEATCNODE,COIL:COOLING:DX:SINGLESPEED,STORAGE_5_1_2_Z73_COOLINGCOILDX,Outlet,1
 Non-Parent Node Connection,OFFICE_OPEN_5_2_0_Z74_SUPPLYINLET,COIL:COOLING:DX:SINGLESPEED,OFFICE_OPEN_5_2_0_Z74_COOLINGCOILDX,Inlet,1
 Non-Parent Node Connection,OFFICE_OPEN_5_2_0_Z74_COOLC-HEATCNODE,COIL:COOLING:DX:SINGLESPEED,OFFICE_OPEN_5_2_0_Z74_COOLINGCOILDX,Outlet,1
 Non-Parent Node Connection,OFFICE_PRIVATE_5_2_1_Z75_SUPPLYINLET,COIL:COOLING:DX:SINGLESPEED,OFFICE_PRIVATE_5_2_1_Z75_COOLINGCOILDX,Inlet,1
 Non-Parent Node Connection,OFFICE_PRIVATE_5_2_1_Z75_COOLC-HEATCNODE,COIL:COOLING:DX:SINGLESPEED,OFFICE_PRIVATE_5_2_1_Z75_COOLINGCOILDX,Outlet,1
 Non-Parent Node Connection,STORAGE_5_2_2_Z76_SUPPLYINLET,COIL:COOLING:DX:SINGLESPEED,STORAGE_5_2_2_Z76_COOLINGCOILDX,Inlet,1
 Non-Parent Node Connection,STORAGE_5_2_2_Z76_COOLC-HEATCNODE,COIL:COOLING:DX:SINGLESPEED,STORAGE_5_2_2_Z76_COOLINGCOILDX,Outlet,1
 Non-Parent Node Connection,LOBBY_6_Z77_SUPPLYINLET,COIL:COOLING:DX:SINGLESPEED,LOBBY_6_Z77_COOLINGCOILDX,Inlet,1
 Non-Parent Node Connection,LOBBY_6_Z77_COOLC-HEATCNODE,COIL:COOLING:DX:SINGLESPEED,LOBBY_6_Z77_COOLINGCOILDX,Outlet,1
 Non-Parent Node Connection,CONFERENCE_6_Z78_SUPPLYINLET,COIL:COOLING:DX:SINGLESPEED,CONFERENCE_6_Z78_COOLINGCOILDX,Inlet,1
 Non-Parent Node Connection,CONFERENCE_6_Z78_COOLC-HEATCNODE,COIL:COOLING:DX:SINGLESPEED,CONFERENCE_6_Z78_COOLINGCOILDX,Outlet,1
 Non-Parent Node Connection,BREAK_ROOM_6_Z79_SUPPLYINLET,COIL:COOLING:DX:SINGLESPEED,BREAK_ROOM_6_Z79_COOLINGCOILDX,Inlet,1
 Non-Parent Node Connection,BREAK_ROOM_6_Z79_COOLC-HEATCNODE,COIL:COOLING:DX:SINGLESPEED,BREAK_ROOM_6_Z79_COOLINGCOILDX,Outlet,1
 Non-Parent Node Connection,MECHANICAL_6_Z80_SUPPLYINLET,COIL:COOLING:DX:SINGLESPEED,MECHANICAL_6_Z80_COOLINGCOILDX,Inlet,1
 Non-Parent Node Connection,MECHANICAL_6_Z80_COOLC-HEATCNODE,COIL:COOLING:DX:SINGLESPEED,MECHANICAL_6_Z80_COOLINGCOILDX,Outlet,1
 Non-Parent Node Connection,OFFICE_OPEN_6_0_0_Z81_SUPPLYINLET,COIL:COOLING:DX:SINGLESPEED,OFFICE_OPEN_6_0_0_Z81_COOLINGCOILDX,Inlet,1
 Non-Parent Node Connection,OFFICE_OPEN_6_0_0_Z81_COOLC-HEATCNODE,COIL:COOLING:DX:SINGLESPEED,OFFICE_OPEN_6_0_0_Z81_COOLINGCOILDX,Outlet,1
 Non-Parent Node Connection,OFFICE_PRIVATE_6_0_1_Z82_SUPPLYINLET,COIL:COOLING:DX:SINGLESPEED,OFFICE_PRIVATE_6_0_1_Z82_COOLINGCOILDX,Inlet,1
 Non-Parent Node Connection,OFFICE_PRIVATE_6_0_1_Z82_COOLC-HEATCNODE,COIL:COOLING:DX:SINGLESPEED,OFFICE_PRIVATE_6_0_1_Z82_COOLINGCOILDX,Outlet,1
 Non-Parent Node Connection,STORAGE_6_0_2_Z83_SUPPLYINLET,COIL:COOLING:DX:SINGLESPEED,STORAGE_6_0_2_Z83_COOLINGCOILDX,Inlet,1
 Non-Parent Node Connection,STORAGE_6_0_2_Z83_COOLC-HEATCNODE,COIL:COOLING:DX:SINGLESPEED,STORAGE_6_0_2_Z83_COOLINGCOILDX,Outlet,1
 Non-Parent Node Connection,OFFICE_OPEN_6_1_0_Z84_SUPPLYINLET,COIL:COOLING:DX:SINGLESPEED,OFFICE_OPEN_6_1_0_Z84_COOLINGCOILDX,Inlet,1
 Non-Parent Node Connection,OFFICE_OPEN_6_1_0_Z84_COOLC-HEATCNODE,COIL:COOLING:DX:SINGLESPEED,OFFICE_OPEN_6_1_0_Z84_COOLINGCOILDX,Outlet,1
 Non-Parent Node Connection,OFFICE_PRIVATE_6_1_1_Z85_SUPPLYINLET,COIL:COOLING:DX:SINGLESPEED,OFFICE_PRIVATE_6_1_1_Z85_COOLINGCOILDX,Inlet,1
 Non-Parent Node Connection,OFFICE_PRIVATE_6_1_1_Z85_COOLC-HEATCNODE,COIL:COOLING:DX:SINGLESPEED,OFFICE_PRIVATE_6_1_1_Z85_COOLINGCOILDX,Outlet,1
 Non-Parent Node Connection,STORAGE_6_1_2_Z86_SUPPLYINLET,COIL:COOLING:DX:SINGLESPEED,STORAGE_6_1_2_Z86_COOLINGCOILDX,Inlet,1
 Non-Parent Node Connection,STORAGE_6_1_2_Z86_COOLC-HEATCNODE,COIL:COOLING:DX:SINGLESPEED,STORAGE_6_1_2_Z86_COOLINGCOILDX,Outlet,1
 Non-Parent Node Connection,OFFICE_OPEN_6_2_0_Z87_SUPPLYINLET,COIL:COOLING:DX:SINGLESPEED,OFFICE_OPEN_6_2_0_Z87_COOLINGCOILDX,Inlet,1
 Non-Parent Node Connection,OFFICE_OPEN_6_2_0_Z87_COOLC-HEATCNODE,COIL:COOLING:DX:SINGLESPEED,OFFICE_OPEN_6_2_0_Z87_COOLINGCOILDX,Outlet,1
 Non-Parent Node Connection,OFFICE_PRIVATE_6_2_1_Z88_SUPPLYINLET,COIL:COOLING:DX:SINGLESPEED,OFFICE_PRIVATE_6_2_1_Z88_COOLINGCOILDX,Inlet,1
 Non-Parent Node Connection,OFFICE_PRIVATE_6_2_1_Z88_COOLC-HEATCNODE,COIL:COOLING:DX:SINGLESPEED,OFFICE_PRIVATE_6_2_1_Z88_COOLINGCOILDX,Outlet,1
 Non-Parent Node Connection,STORAGE_6_2_2_Z89_SUPPLYINLET,COIL:COOLING:DX:SINGLESPEED,STORAGE_6_2_2_Z89_COOLINGCOILDX,Inlet,1
 Non-Parent Node Connection,STORAGE_6_2_2_Z89_COOLC-HEATCNODE,COIL:COOLING:DX:SINGLESPEED,STORAGE_6_2_2_Z89_COOLINGCOILDX,Outlet,1
 Non-Parent Node Connection,LOBBY_7_Z90_SUPPLYINLET,COIL:COOLING:DX:SINGLESPEED,LOBBY_7_Z90_COOLINGCOILDX,Inlet,1
 Non-Parent Node Connection,LOBBY_7_Z90_COOLC-HEATCNODE,COIL:COOLING:DX:SINGLESPEED,LOBBY_7_Z90_COOLINGCOILDX,Outlet,1
 Non-Parent Node Connection,CONFERENCE_7_Z91_SUPPLYINLET,COIL:COOLING:DX:SINGLESPEED,CONFERENCE_7_Z91_COOLINGCOILDX,Inlet,1
 Non-Parent Node Connection,CONFERENCE_7_Z91_COOLC-HEATCNODE,COIL:COOLING:DX:SINGLESPEED,CONFERENCE_7_Z91_COOLINGCOILDX,Outlet,1
 Non-Parent Node Connection,BREAK_ROOM_7_Z92_SUPPLYINLET,COIL:COOLING:DX:SINGLESPEED,BREAK_ROOM_7_Z92_COOLINGCOILDX,Inlet,1
 Non-Parent Node Connection,BREAK_ROOM_7_Z92_COOLC-HEATCNODE,COIL:COOLING:DX:SINGLESPEED,BREAK_ROOM_7_Z92_COOLINGCOILDX,Outlet,1
 Non-Parent Node Connection,MECHANICAL_7_Z93_SUPPLYINLET,COIL:COOLING:DX:SINGLESPEED,MECHANICAL_7_Z93_COOLINGCOILDX,Inlet,1
 Non-Parent Node Connection,MECHANICAL_7_Z93_COOLC-HEATCNODE,COIL:COOLING:DX:SINGLESPEED,MECHANICAL_7_Z93_COOLINGCOILDX,Outlet,1
 Non-Parent Node Connection,OFFICE_OPEN_7_0_0_Z94_SUPPLYINLET,COIL:COOLING:DX:SINGLESPEED,OFFICE_OPEN_7_0_0_Z94_COOLINGCOILDX,Inlet,1
 Non-Parent Node Connection,OFFICE_OPEN_7_0_0_Z94_COOLC-HEATCNODE,COIL:COOLING:DX:SINGLESPEED,OFFICE_OPEN_7_0_0_Z94_COOLINGCOILDX,Outlet,1
 Non-Parent Node Connection,OFFICE_PRIVATE_7_0_1_Z95_SUPPLYINLET,COIL:COOLING:DX:SINGLESPEED,OFFICE_PRIVATE_7_0_1_Z95_COOLINGCOILDX,Inlet,1
 Non-Parent Node Connection,OFFICE_PRIVATE_7_0_1_Z95_COOLC-HEATCNODE,COIL:COOLING:DX:SINGLESPEED,OFFICE_PRIVATE_7_0_1_Z95_COOLINGCOILDX,Outlet,1
 Non-Parent Node Connection,STORAGE_7_0_2_Z96_SUPPLYINLET,COIL:COOLING:DX:SINGLESPEED,STORAGE_7_0_2_Z96_COOLINGCOILDX,Inlet,1
 Non-Parent Node Connection,STORAGE_7_0_2_Z96_COOLC-HEATCNODE,COIL:COOLING:DX:SINGLESPEED,STORAGE_7_0_2_Z96_COOLINGCOILDX,Outlet,1
 Non-Parent Node Connection,OFFICE_OPEN_7_1_0_Z97_SUPPLYINLET,COIL:COOLING:DX:SINGLESPEED,OFFICE_OPEN_7_1_0_Z97_COOLINGCOILDX,Inlet,1
 Non-Parent Node Connection,OFFICE_OPEN_7_1_0_Z97_COOLC-HEATCNODE,COIL:COOLING:DX:SINGLESPEED,OFFICE_OPEN_7_1_0_Z97_COOLINGCOILDX,Outlet,1
 Non-Parent Node Connection,OFFICE_PRIVATE_7_1_1_Z98_SUPPLYINLET,COIL:COOLING:DX:SINGLESPEED,OFFICE_PRIVATE_7_1_1_Z98_COOLINGCOILDX,Inlet,1
 Non-Parent Node Connection,OFFICE_PRIVATE_7_1_1_Z98_COOLC-HEATCNODE,COIL:COOLING:DX:SINGLESPEED,OFFICE_PRIVATE_7_1_1_Z98_COOLINGCOILDX,Outlet,1
 Non-Parent Node Connection,STORAGE_7_1_2_Z99_SUPPLYINLET,COIL:COOLING:DX:SINGLESPEED,STORAGE_7_1_2_Z99_COOLINGCOILDX,Inlet,1
 Non-Parent Node Connection,STORAGE_7_1_2_Z99_COOLC-HEATCNODE,COIL:COOLING:DX:SINGLESPEED,STORAGE_7_1_2_Z99_COOLINGCOILDX,Outlet,1
 Non-Parent Node Connection,OFFICE_OPEN_7_2_0_Z100_SUPPLYINLET,COIL:COOLING:DX:SINGLESPEED,OFFICE_OPEN_7_2_0_Z100_COOLINGCOILDX,Inlet,1
 Non-Parent Node Connection,OFFICE_OPEN_7_2_0_Z100_COOLC-HEATCNODE,COIL:COOLING:DX:SINGLESPEED,OFFICE_OPEN_7_2_0_Z100_COOLINGCOILDX,Outlet,1
 Non-Parent Node Connection,OFFICE_PRIVATE_7_2_1_Z101_SUPPLYINLET,COIL:COOLING:DX:SINGLESPEED,OFFICE_PRIVATE_7_2_1_Z101_COOLINGCOILDX,Inlet,1
 Non-Parent Node Connection,OFFICE_PRIVATE_7_2_1_Z101_COOLC-HEATCNODE,COIL:COOLING:DX:SINGLESPEED,OFFICE_PRIVATE_7_2_1_Z101_COOLINGCOILDX,Outlet,1
 Non-Parent Node Connection,STORAGE_7_2_2_Z102_SUPPLYINLET,COIL:COOLING:DX:SINGLESPEED,STORAGE_7_2_2_Z102_COOLINGCOILDX,Inlet,1
 Non-Parent Node Connection,STORAGE_7_2_2_Z102_COOLC-HEATCNODE,COIL:COOLING:DX:SINGLESPEED,STORAGE_7_2_2_Z102_COOLINGCOILDX,Outlet,1
 Non-Parent Node Connection,LOBBY_8_Z103_SUPPLYINLET,COIL:COOLING:DX:SINGLESPEED,LOBBY_8_Z103_COOLINGCOILDX,Inlet,1
 Non-Parent Node Connection,LOBBY_8_Z103_COOLC-HEATCNODE,COIL:COOLING:DX:SINGLESPEED,LOBBY_8_Z103_COOLINGCOILDX,Outlet,1
 Non-Parent Node Connection,CONFERENCE_8_Z104_SUPPLYINLET,COIL:COOLING:DX:SINGLESPEED,CONFERENCE_8_Z104_COOLINGCOILDX,Inlet,1
 Non-Parent Node Connection,CONFERENCE_8_Z104_COOLC-HEATCNODE,COIL:COOLING:DX:SINGLESPEED,CONFERENCE_8_Z104_COOLINGCOILDX,Outlet,1
 Non-Parent Node Connection,BREAK_ROOM_8_Z105_SUPPLYINLET,COIL:COOLING:DX:SINGLESPEED,BREAK_ROOM_8_Z105_COOLINGCOILDX,Inlet,1
 Non-Parent Node Connection,BREAK_ROOM_8_Z105_COOLC-HEATCNODE,COIL:COOLING:DX:SINGLESPEED,BREAK_ROOM_8_Z105_COOLINGCOILDX,Outlet,1
 Non-Parent Node Connection,MECHANICAL_8_Z106_SUPPLYINLET,COIL:COOLING:DX:SINGLESPEED,MECHANICAL_8_Z106_COOLINGCOILDX,Inlet,1
 Non-Parent Node Connection,MECHANICAL_8_Z106_COOLC-HEATCNODE,COIL:COOLING:DX:SINGLESPEED,MECHANICAL_8_Z106_COOLINGCOILDX,Outlet,1
 Non-Parent Node Connection,OFFICE_OPEN_8_0_0_Z107_SUPPLYINLET,COIL:COOLING:DX:SINGLESPEED,OFFICE_OPEN_8_0_0_Z107_COOLINGCOILDX,Inlet,1
 Non-Parent Node Connection,OFFICE_OPEN_8_0_0_Z107_COOLC-HEATCNODE,COIL:COOLING:DX:SINGLESPEED,OFFICE_OPEN_8_0_0_Z107_COOLINGCOILDX,Outlet,1
 Non-Parent Node Connection,OFFICE_PRIVATE_8_0_1_Z108_SUPPLYINLET,COIL:COOLING:DX:SINGLESPEED,OFFICE_PRIVATE_8_0_1_Z108_COOLINGCOILDX,Inlet,1
 Non-Parent Node Connection,OFFICE_PRIVATE_8_0_1_Z108_COOLC-HEATCNODE,COIL:COOLING:DX:SINGLESPEED,OFFICE_PRIVATE_8_0_1_Z108_COOLINGCOILDX,Outlet,1
 Non-Parent Node Connection,STORAGE_8_0_2_Z109_SUPPLYINLET,COIL:COOLING:DX:SINGLESPEED,STORAGE_8_0_2_Z109_COOLINGCOILDX,Inlet,1
 Non-Parent Node Connection,STORAGE_8_0_2_Z109_COOLC-HEATCNODE,COIL:COOLING:DX:SINGLESPEED,STORAGE_8_0_2_Z109_COOLINGCOILDX,Outlet,1
 Non-Parent Node Connection,OFFICE_OPEN_8_1_0_Z110_SUPPLYINLET,COIL:COOLING:DX:SINGLESPEED,OFFICE_OPEN_8_1_0_Z110_COOLINGCOILDX,Inlet,1
 Non-Parent Node Connection,OFFICE_OPEN_8_1_0_Z110_COOLC-HEATCNODE,COIL:COOLING:DX:SINGLESPEED,OFFICE_OPEN_8_1_0_Z110_COOLINGCOILDX,Outlet,1
 Non-Parent Node Connection,OFFICE_PRIVATE_8_1_1_Z111_SUPPLYINLET,COIL:COOLING:DX:SINGLESPEED,OFFICE_PRIVATE_8_1_1_Z111_COOLINGCOILDX,Inlet,1
 Non-Parent Node Connection,OFFICE_PRIVATE_8_1_1_Z111_COOLC-HEATCNODE,COIL:COOLING:DX:SINGLESPEED,OFFICE_PRIVATE_8_1_1_Z111_COOLINGCOILDX,Outlet,1
 Non-Parent Node Connection,STORAGE_8_1_2_Z112_SUPPLYINLET,COIL:COOLING:DX:SINGLESPEED,STORAGE_8_1_2_Z112_COOLINGCOILDX,Inlet,1
 Non-Parent Node Connection,STORAGE_8_1_2_Z112_COOLC-HEATCNODE,COIL:COOLING:DX:SINGLESPEED,STORAGE_8_1_2_Z112_COOLINGCOILDX,Outlet,1
 Non-Parent Node Connection,OFFICE_OPEN_8_2_0_Z113_SUPPLYINLET,COIL:COOLING:DX:SINGLESPEED,OFFICE_OPEN_8_2_0_Z113_COOLINGCOILDX,Inlet,1
 Non-Parent Node Connection,OFFICE_OPEN_8_2_0_Z113_COOLC-HEATCNODE,COIL:COOLING:DX:SINGLESPEED,OFFICE_OPEN_8_2_0_Z113_COOLINGCOILDX,Outlet,1
 Non-Parent Node Connection,OFFICE_PRIVATE_8_2_1_Z114_SUPPLYINLET,COIL:COOLING:DX:SINGLESPEED,OFFICE_PRIVATE_8_2_1_Z114_COOLINGCOILDX,Inlet,1
 Non-Parent Node Connection,OFFICE_PRIVATE_8_2_1_Z114_COOLC-HEATCNODE,COIL:COOLING:DX:SINGLESPEED,OFFICE_PRIVATE_8_2_1_Z114_COOLINGCOILDX,Outlet,1
 Non-Parent Node Connection,STORAGE_8_2_2_Z115_SUPPLYINLET,COIL:COOLING:DX:SINGLESPEED,STORAGE_8_2_2_Z115_COOLINGCOILDX,Inlet,1
 Non-Parent Node Connection,STORAGE_8_2_2_Z115_COOLC-HEATCNODE,COIL:COOLING:DX:SINGLESPEED,STORAGE_8_2_2_Z115_COOLINGCOILDX,Outlet,1
 Non-Parent Node Connection,LOBBY_9_Z116_SUPPLYINLET,COIL:COOLING:DX:SINGLESPEED,LOBBY_9_Z116_COOLINGCOILDX,Inlet,1
 Non-Parent Node Connection,LOBBY_9_Z116_COOLC-HEATCNODE,COIL:COOLING:DX:SINGLESPEED,LOBBY_9_Z116_COOLINGCOILDX,Outlet,1
 Non-Parent Node Connection,CONFERENCE_9_Z117_SUPPLYINLET,COIL:COOLING:DX:SINGLESPEED,CONFERENCE_9_Z117_COOLINGCOILDX,Inlet,1
 Non-Parent Node Connection,CONFERENCE_9_Z117_COOLC-HEATCNODE,COIL:COOLING:DX:SINGLESPEED,CONFERENCE_9_Z117_COOLINGCOILDX,Outlet,1
 Non-Parent Node Connection,BREAK_ROOM_9_Z118_SUPPLYINLET,COIL:COOLING:DX:SINGLESPEED,BREAK_ROOM_9_Z118_COOLINGCOILDX,Inlet,1
 Non-Parent Node Connection,BREAK_ROOM_9_Z118_COOLC-HEATCNODE,COIL:COOLING:DX:SINGLESPEED,BREAK_ROOM_9_Z118_COOLINGCOILDX,Outlet,1
 Non-Parent Node Connection,OFFICE_OPEN_9_0_0_Z119_SUPPLYINLET,COIL:COOLING:DX:SINGLESPEED,OFFICE_OPEN_9_0_0_Z119_COOLINGCOILDX,Inlet,1
 Non-Parent Node Connection,OFFICE_OPEN_9_0_0_Z119_COOLC-HEATCNODE,COIL:COOLING:DX:SINGLESPEED,OFFICE_OPEN_9_0_0_Z119_COOLINGCOILDX,Outlet,1
 Non-Parent Node Connection,OFFICE_PRIVATE_9_0_1_Z120_SUPPLYINLET,COIL:COOLING:DX:SINGLESPEED,OFFICE_PRIVATE_9_0_1_Z120_COOLINGCOILDX,Inlet,1
 Non-Parent Node Connection,OFFICE_PRIVATE_9_0_1_Z120_COOLC-HEATCNODE,COIL:COOLING:DX:SINGLESPEED,OFFICE_PRIVATE_9_0_1_Z120_COOLINGCOILDX,Outlet,1
 Non-Parent Node Connection,STORAGE_9_0_2_Z121_SUPPLYINLET,COIL:COOLING:DX:SINGLESPEED,STORAGE_9_0_2_Z121_COOLINGCOILDX,Inlet,1
 Non-Parent Node Connection,STORAGE_9_0_2_Z121_COOLC-HEATCNODE,COIL:COOLING:DX:SINGLESPEED,STORAGE_9_0_2_Z121_COOLINGCOILDX,Outlet,1
 Non-Parent Node Connection,OFFICE_OPEN_9_1_0_Z122_SUPPLYINLET,COIL:COOLING:DX:SINGLESPEED,OFFICE_OPEN_9_1_0_Z122_COOLINGCOILDX,Inlet,1
 Non-Parent Node Connection,OFFICE_OPEN_9_1_0_Z122_COOLC-HEATCNODE,COIL:COOLING:DX:SINGLESPEED,OFFICE_OPEN_9_1_0_Z122_COOLINGCOILDX,Outlet,1
 Non-Parent Node Connection,OFFICE_PRIVATE_9_1_1_Z123_SUPPLYINLET,COIL:COOLING:DX:SINGLESPEED,OFFICE_PRIVATE_9_1_1_Z123_COOLINGCOILDX,Inlet,1
 Non-Parent Node Connection,OFFICE_PRIVATE_9_1_1_Z123_COOLC-HEATCNODE,COIL:COOLING:DX:SINGLESPEED,OFFICE_PRIVATE_9_1_1_Z123_COOLINGCOILDX,Outlet,1
 Non-Parent Node Connection,STORAGE_9_1_2_Z124_SUPPLYINLET,COIL:COOLING:DX:SINGLESPEED,STORAGE_9_1_2_Z124_COOLINGCOILDX,Inlet,1
 Non-Parent Node Connection,STORAGE_9_1_2_Z124_COOLC-HEATCNODE,COIL:COOLING:DX:SINGLESPEED,STORAGE_9_1_2_Z124_COOLINGCOILDX,Outlet,1
 Non-Parent Node Connection,OFFICE_OPEN_9_2_0_Z125_SUPPLYINLET,COIL:COOLING:DX:SINGLESPEED,OFFICE_OPEN_9_2_0_Z125_COOLINGCOILDX,Inlet,1
 Non-Parent Node Connection,OFFICE_OPEN_9_2_0_Z125_COOLC-HEATCNODE,COIL:COOLING:DX:SINGLESPEED,OFFICE_OPEN_9_2_0_Z125_COOLINGCOILDX,Outlet,1
 Non-Parent Node Connection,OFFICE_PRIVATE_9_2_1_Z126_SUPPLYINLET,COIL:COOLING:DX:SINGLESPEED,OFFICE_PRIVATE_9_2_1_Z126_COOLINGCOILDX,Inlet,1
 Non-Parent Node Connection,OFFICE_PRIVATE_9_2_1_Z126_COOLC-HEATCNODE,COIL:COOLING:DX:SINGLESPEED,OFFICE_PRIVATE_9_2_1_Z126_COOLINGCOILDX,Outlet,1
 Non-Parent Node Connection,STORAGE_9_2_2_Z127_SUPPLYINLET,COIL:COOLING:DX:SINGLESPEED,STORAGE_9_2_2_Z127_COOLINGCOILDX,Inlet,1
 Non-Parent Node Connection,STORAGE_9_2_2_Z127_COOLC-HEATCNODE,COIL:COOLING:DX:SINGLESPEED,STORAGE_9_2_2_Z127_COOLINGCOILDX,Outlet,1
