Program Version,EnergyPlus, Version 24.2.0-94a887817b, YMD=2025.11.02 22:12
! This file shows details about the branches, nodes, and other
! elements of the flow connections.
! This file is intended for use in "debugging" potential problems
! that may also be detected by the program, but may be more easily
! identified by "eye".
! This file is also intended to support software which draws a
! schematic diagram of the HVAC system.
! ===============================================================
! #Nodes,<Number of Unique Nodes>
 #Nodes,715
! <Node>,<NodeNumber>,<Node Name>,<Node Fluid Type>,<# Times Node Referenced After Definition>
 Node,1,LOBBY_0_Z1_ADUOUTLET,Air,4
 Node,2,CONFERENCE_0_Z2_ADUOUTLET,Air,4
 Node,3,BREAK_ROOM_0_Z3_ADUOUTLET,Air,4
 Node,4,MECHANICAL_0_Z4_ADUOUTLET,Air,4
 Node,5,OFFICE_OPEN_0_Z5_ADUOUTLET,Air,4
 Node,6,OFFICE_PRIVATE_0_Z6_ADUOUTLET,Air,4
 Node,7,STORAGE_0_Z7_ADUOUTLET,Air,4
 Node,8,LOBBY_1_Z8_ADUOUTLET,Air,4
 Node,9,CONFERENCE_1_Z9_ADUOUTLET,Air,4
 Node,10,BREAK_ROOM_1_Z10_ADUOUTLET,Air,4
 Node,11,MECHANICAL_1_Z11_ADUOUTLET,Air,4
 Node,12,OFFICE_OPEN_1_Z12_ADUOUTLET,Air,4
 Node,13,OFFICE_PRIVATE_1_Z13_ADUOUTLET,Air,4
 Node,14,STORAGE_1_Z14_ADUOUTLET,Air,4
 Node,15,LOBBY_2_Z15_ADUOUTLET,Air,4
 Node,16,CONFERENCE_2_Z16_ADUOUTLET,Air,4
 Node,17,MECHANICAL_2_Z17_ADUOUTLET,Air,4
 Node,18,OFFICE_OPEN_2_Z18_ADUOUTLET,Air,4
 Node,19,OFFICE_PRIVATE_2_Z19_ADUOUTLET,Air,4
 Node,20,STORAGE_2_Z20_ADUOUTLET,Air,4
 Node,21,LOBBY_3_Z21_ADUOUTLET,Air,4
 Node,22,CONFERENCE_3_Z22_ADUOUTLET,Air,4
 Node,23,BREAK_ROOM_3_Z23_ADUOUTLET,Air,4
 Node,24,MECHANICAL_3_Z24_ADUOUTLET,Air,4
 Node,25,OFFICE_OPEN_3_Z25_ADUOUTLET,Air,4
 Node,26,OFFICE_PRIVATE_3_Z26_ADUOUTLET,Air,4
 Node,27,STORAGE_3_Z27_ADUOUTLET,Air,4
 Node,28,LOBBY_4_Z28_ADUOUTLET,Air,4
 Node,29,CONFERENCE_4_Z29_ADUOUTLET,Air,4
 Node,30,BREAK_ROOM_4_Z30_ADUOUTLET,Air,4
 Node,31,MECHANICAL_4_Z31_ADUOUTLET,Air,4
 Node,32,OFFICE_OPEN_4_Z32_ADUOUTLET,Air,4
 Node,33,OFFICE_PRIVATE_4_Z33_ADUOUTLET,Air,4
 Node,34,STORAGE_4_Z34_ADUOUTLET,Air,4
 Node,35,LOBBY_5_Z35_ADUOUTLET,Air,4
 Node,36,CONFERENCE_5_Z36_ADUOUTLET,Air,4
 Node,37,BREAK_ROOM_5_Z37_ADUOUTLET,Air,4
 Node,38,MECHANICAL_5_Z38_ADUOUTLET,Air,4
 Node,39,OFFICE_OPEN_5_Z39_ADUOUTLET,Air,4
 Node,40,OFFICE_PRIVATE_5_Z40_ADUOUTLET,Air,4
 Node,41,STORAGE_5_Z41_ADUOUTLET,Air,4
 Node,42,LOBBY_6_Z42_ADUOUTLET,Air,4
 Node,43,CONFERENCE_6_Z43_ADUOUTLET,Air,4
 Node,44,MECHANICAL_6_Z44_ADUOUTLET,Air,4
 Node,45,OFFICE_OPEN_6_Z45_ADUOUTLET,Air,4
 Node,46,OFFICE_PRIVATE_6_Z46_ADUOUTLET,Air,4
 Node,47,STORAGE_6_Z47_ADUOUTLET,Air,4
 Node,48,LOBBY_7_Z48_ADUOUTLET,Air,4
 Node,49,CONFERENCE_7_Z49_ADUOUTLET,Air,4
 Node,50,BREAK_ROOM_7_Z50_ADUOUTLET,Air,4
 Node,51,MECHANICAL_7_Z51_ADUOUTLET,Air,4
 Node,52,OFFICE_OPEN_7_Z52_ADUOUTLET,Air,4
 Node,53,OFFICE_PRIVATE_7_Z53_ADUOUTLET,Air,4
 Node,54,STORAGE_7_Z54_ADUOUTLET,Air,4
 Node,55,BREAK_ROOM_8_Z55_ADUOUTLET,Air,4
 Node,56,MECHANICAL_8_Z56_ADUOUTLET,Air,4
 Node,57,OFFICE_OPEN_8_Z57_ADUOUTLET,Air,4
 Node,58,OFFICE_PRIVATE_8_Z58_ADUOUTLET,Air,4
 Node,59,STORAGE_8_Z59_ADUOUTLET,Air,4
 Node,60,LOBBY_9_Z60_ADUOUTLET,Air,4
 Node,61,BREAK_ROOM_9_Z61_ADUOUTLET,Air,4
 Node,62,MECHANICAL_9_Z62_ADUOUTLET,Air,4
 Node,63,OFFICE_OPEN_9_Z63_ADUOUTLET,Air,4
 Node,64,OFFICE_PRIVATE_9_Z64_ADUOUTLET,Air,4
 Node,65,STORAGE_9_Z65_ADUOUTLET,Air,4
 Node,66,LOBBY_0_Z1_SUPPLYINLET,Air,3
 Node,67,LOBBY_0_Z1_COOLC-HEATCNODE,Air,6
 Node,68,LOBBY_0_Z1_HEATC-FANNODE,Air,5
 Node,69,LOBBY_0_Z1_SUPPLYEQUIPMENTOUTLETNODE,Air,3
 Node,70,CONFERENCE_0_Z2_SUPPLYINLET,Air,3
 Node,71,CONFERENCE_0_Z2_COOLC-HEATCNODE,Air,6
 Node,72,CONFERENCE_0_Z2_HEATC-FANNODE,Air,5
 Node,73,CONFERENCE_0_Z2_SUPPLYEQUIPMENTOUTLETNODE,Air,3
 Node,74,BREAK_ROOM_0_Z3_SUPPLYINLET,Air,3
 Node,75,BREAK_ROOM_0_Z3_COOLC-HEATCNODE,Air,6
 Node,76,BREAK_ROOM_0_Z3_HEATC-FANNODE,Air,5
 Node,77,BREAK_ROOM_0_Z3_SUPPLYEQUIPMENTOUTLETNODE,Air,3
 Node,78,MECHANICAL_0_Z4_SUPPLYINLET,Air,3
 Node,79,MECHANICAL_0_Z4_COOLC-HEATCNODE,Air,6
 Node,80,MECHANICAL_0_Z4_HEATC-FANNODE,Air,5
 Node,81,MECHANICAL_0_Z4_SUPPLYEQUIPMENTOUTLETNODE,Air,3
 Node,82,OFFICE_OPEN_0_Z5_SUPPLYINLET,Air,3
 Node,83,OFFICE_OPEN_0_Z5_COOLC-HEATCNODE,Air,6
 Node,84,OFFICE_OPEN_0_Z5_HEATC-FANNODE,Air,5
 Node,85,OFFICE_OPEN_0_Z5_SUPPLYEQUIPMENTOUTLETNODE,Air,3
 Node,86,OFFICE_PRIVATE_0_Z6_SUPPLYINLET,Air,3
 Node,87,OFFICE_PRIVATE_0_Z6_COOLC-HEATCNODE,Air,6
 Node,88,OFFICE_PRIVATE_0_Z6_HEATC-FANNODE,Air,5
 Node,89,OFFICE_PRIVATE_0_Z6_SUPPLYEQUIPMENTOUTLETNODE,Air,3
 Node,90,STORAGE_0_Z7_SUPPLYINLET,Air,3
 Node,91,STORAGE_0_Z7_COOLC-HEATCNODE,Air,6
 Node,92,STORAGE_0_Z7_HEATC-FANNODE,Air,5
 Node,93,STORAGE_0_Z7_SUPPLYEQUIPMENTOUTLETNODE,Air,3
 Node,94,LOBBY_1_Z8_SUPPLYINLET,Air,3
 Node,95,LOBBY_1_Z8_COOLC-HEATCNODE,Air,6
 Node,96,LOBBY_1_Z8_HEATC-FANNODE,Air,5
 Node,97,LOBBY_1_Z8_SUPPLYEQUIPMENTOUTLETNODE,Air,3
 Node,98,CONFERENCE_1_Z9_SUPPLYINLET,Air,3
 Node,99,CONFERENCE_1_Z9_COOLC-HEATCNODE,Air,6
 Node,100,CONFERENCE_1_Z9_HEATC-FANNODE,Air,5
 Node,101,CONFERENCE_1_Z9_SUPPLYEQUIPMENTOUTLETNODE,Air,3
 Node,102,BREAK_ROOM_1_Z10_SUPPLYINLET,Air,3
 Node,103,BREAK_ROOM_1_Z10_COOLC-HEATCNODE,Air,6
 Node,104,BREAK_ROOM_1_Z10_HEATC-FANNODE,Air,5
 Node,105,BREAK_ROOM_1_Z10_SUPPLYEQUIPMENTOUTLETNODE,Air,3
 Node,106,MECHANICAL_1_Z11_SUPPLYINLET,Air,3
 Node,107,MECHANICAL_1_Z11_COOLC-HEATCNODE,Air,6
 Node,108,MECHANICAL_1_Z11_HEATC-FANNODE,Air,5
 Node,109,MECHANICAL_1_Z11_SUPPLYEQUIPMENTOUTLETNODE,Air,3
 Node,110,OFFICE_OPEN_1_Z12_SUPPLYINLET,Air,3
 Node,111,OFFICE_OPEN_1_Z12_COOLC-HEATCNODE,Air,6
 Node,112,OFFICE_OPEN_1_Z12_HEATC-FANNODE,Air,5
 Node,113,OFFICE_OPEN_1_Z12_SUPPLYEQUIPMENTOUTLETNODE,Air,3
 Node,114,OFFICE_PRIVATE_1_Z13_SUPPLYINLET,Air,3
 Node,115,OFFICE_PRIVATE_1_Z13_COOLC-HEATCNODE,Air,6
 Node,116,OFFICE_PRIVATE_1_Z13_HEATC-FANNODE,Air,5
 Node,117,OFFICE_PRIVATE_1_Z13_SUPPLYEQUIPMENTOUTLETNODE,Air,3
 Node,118,STORAGE_1_Z14_SUPPLYINLET,Air,3
 Node,119,STORAGE_1_Z14_COOLC-HEATCNODE,Air,6
 Node,120,STORAGE_1_Z14_HEATC-FANNODE,Air,5
 Node,121,STORAGE_1_Z14_SUPPLYEQUIPMENTOUTLETNODE,Air,3
 Node,122,LOBBY_2_Z15_SUPPLYINLET,Air,3
 Node,123,LOBBY_2_Z15_COOLC-HEATCNODE,Air,6
 Node,124,LOBBY_2_Z15_HEATC-FANNODE,Air,5
 Node,125,LOBBY_2_Z15_SUPPLYEQUIPMENTOUTLETNODE,Air,3
 Node,126,CONFERENCE_2_Z16_SUPPLYINLET,Air,3
 Node,127,CONFERENCE_2_Z16_COOLC-HEATCNODE,Air,6
 Node,128,CONFERENCE_2_Z16_HEATC-FANNODE,Air,5
 Node,129,CONFERENCE_2_Z16_SUPPLYEQUIPMENTOUTLETNODE,Air,3
 Node,130,MECHANICAL_2_Z17_SUPPLYINLET,Air,3
 Node,131,MECHANICAL_2_Z17_COOLC-HEATCNODE,Air,6
 Node,132,MECHANICAL_2_Z17_HEATC-FANNODE,Air,5
 Node,133,MECHANICAL_2_Z17_SUPPLYEQUIPMENTOUTLETNODE,Air,3
 Node,134,OFFICE_OPEN_2_Z18_SUPPLYINLET,Air,3
 Node,135,OFFICE_OPEN_2_Z18_COOLC-HEATCNODE,Air,6
 Node,136,OFFICE_OPEN_2_Z18_HEATC-FANNODE,Air,5
 Node,137,OFFICE_OPEN_2_Z18_SUPPLYEQUIPMENTOUTLETNODE,Air,3
 Node,138,OFFICE_PRIVATE_2_Z19_SUPPLYINLET,Air,3
 Node,139,OFFICE_PRIVATE_2_Z19_COOLC-HEATCNODE,Air,6
 Node,140,OFFICE_PRIVATE_2_Z19_HEATC-FANNODE,Air,5
 Node,141,OFFICE_PRIVATE_2_Z19_SUPPLYEQUIPMENTOUTLETNODE,Air,3
 Node,142,STORAGE_2_Z20_SUPPLYINLET,Air,3
 Node,143,STORAGE_2_Z20_COOLC-HEATCNODE,Air,6
 Node,144,STORAGE_2_Z20_HEATC-FANNODE,Air,5
 Node,145,STORAGE_2_Z20_SUPPLYEQUIPMENTOUTLETNODE,Air,3
 Node,146,LOBBY_3_Z21_SUPPLYINLET,Air,3
 Node,147,LOBBY_3_Z21_COOLC-HEATCNODE,Air,6
 Node,148,LOBBY_3_Z21_HEATC-FANNODE,Air,5
 Node,149,LOBBY_3_Z21_SUPPLYEQUIPMENTOUTLETNODE,Air,3
 Node,150,CONFERENCE_3_Z22_SUPPLYINLET,Air,3
 Node,151,CONFERENCE_3_Z22_COOLC-HEATCNODE,Air,6
 Node,152,CONFERENCE_3_Z22_HEATC-FANNODE,Air,5
 Node,153,CONFERENCE_3_Z22_SUPPLYEQUIPMENTOUTLETNODE,Air,3
 Node,154,BREAK_ROOM_3_Z23_SUPPLYINLET,Air,3
 Node,155,BREAK_ROOM_3_Z23_COOLC-HEATCNODE,Air,6
 Node,156,BREAK_ROOM_3_Z23_HEATC-FANNODE,Air,5
 Node,157,BREAK_ROOM_3_Z23_SUPPLYEQUIPMENTOUTLETNODE,Air,3
 Node,158,MECHANICAL_3_Z24_SUPPLYINLET,Air,3
 Node,159,MECHANICAL_3_Z24_COOLC-HEATCNODE,Air,6
 Node,160,MECHANICAL_3_Z24_HEATC-FANNODE,Air,5
 Node,161,MECHANICAL_3_Z24_SUPPLYEQUIPMENTOUTLETNODE,Air,3
 Node,162,OFFICE_OPEN_3_Z25_SUPPLYINLET,Air,3
 Node,163,OFFICE_OPEN_3_Z25_COOLC-HEATCNODE,Air,6
 Node,164,OFFICE_OPEN_3_Z25_HEATC-FANNODE,Air,5
 Node,165,OFFICE_OPEN_3_Z25_SUPPLYEQUIPMENTOUTLETNODE,Air,3
 Node,166,OFFICE_PRIVATE_3_Z26_SUPPLYINLET,Air,3
 Node,167,OFFICE_PRIVATE_3_Z26_COOLC-HEATCNODE,Air,6
 Node,168,OFFICE_PRIVATE_3_Z26_HEATC-FANNODE,Air,5
 Node,169,OFFICE_PRIVATE_3_Z26_SUPPLYEQUIPMENTOUTLETNODE,Air,3
 Node,170,STORAGE_3_Z27_SUPPLYINLET,Air,3
 Node,171,STORAGE_3_Z27_COOLC-HEATCNODE,Air,6
 Node,172,STORAGE_3_Z27_HEATC-FANNODE,Air,5
 Node,173,STORAGE_3_Z27_SUPPLYEQUIPMENTOUTLETNODE,Air,3
 Node,174,LOBBY_4_Z28_SUPPLYINLET,Air,3
 Node,175,LOBBY_4_Z28_COOLC-HEATCNODE,Air,6
 Node,176,LOBBY_4_Z28_HEATC-FANNODE,Air,5
 Node,177,LOBBY_4_Z28_SUPPLYEQUIPMENTOUTLETNODE,Air,3
 Node,178,CONFERENCE_4_Z29_SUPPLYINLET,Air,3
 Node,179,CONFERENCE_4_Z29_COOLC-HEATCNODE,Air,6
 Node,180,CONFERENCE_4_Z29_HEATC-FANNODE,Air,5
 Node,181,CONFERENCE_4_Z29_SUPPLYEQUIPMENTOUTLETNODE,Air,3
 Node,182,BREAK_ROOM_4_Z30_SUPPLYINLET,Air,3
 Node,183,BREAK_ROOM_4_Z30_COOLC-HEATCNODE,Air,6
 Node,184,BREAK_ROOM_4_Z30_HEATC-FANNODE,Air,5
 Node,185,BREAK_ROOM_4_Z30_SUPPLYEQUIPMENTOUTLETNODE,Air,3
 Node,186,MECHANICAL_4_Z31_SUPPLYINLET,Air,3
 Node,187,MECHANICAL_4_Z31_COOLC-HEATCNODE,Air,6
 Node,188,MECHANICAL_4_Z31_HEATC-FANNODE,Air,5
 Node,189,MECHANICAL_4_Z31_SUPPLYEQUIPMENTOUTLETNODE,Air,3
 Node,190,OFFICE_OPEN_4_Z32_SUPPLYINLET,Air,3
 Node,191,OFFICE_OPEN_4_Z32_COOLC-HEATCNODE,Air,6
 Node,192,OFFICE_OPEN_4_Z32_HEATC-FANNODE,Air,5
 Node,193,OFFICE_OPEN_4_Z32_SUPPLYEQUIPMENTOUTLETNODE,Air,3
 Node,194,OFFICE_PRIVATE_4_Z33_SUPPLYINLET,Air,3
 Node,195,OFFICE_PRIVATE_4_Z33_COOLC-HEATCNODE,Air,6
 Node,196,OFFICE_PRIVATE_4_Z33_HEATC-FANNODE,Air,5
 Node,197,OFFICE_PRIVATE_4_Z33_SUPPLYEQUIPMENTOUTLETNODE,Air,3
 Node,198,STORAGE_4_Z34_SUPPLYINLET,Air,3
 Node,199,STORAGE_4_Z34_COOLC-HEATCNODE,Air,6
 Node,200,STORAGE_4_Z34_HEATC-FANNODE,Air,5
 Node,201,STORAGE_4_Z34_SUPPLYEQUIPMENTOUTLETNODE,Air,3
 Node,202,LOBBY_5_Z35_SUPPLYINLET,Air,3
 Node,203,LOBBY_5_Z35_COOLC-HEATCNODE,Air,6
 Node,204,LOBBY_5_Z35_HEATC-FANNODE,Air,5
 Node,205,LOBBY_5_Z35_SUPPLYEQUIPMENTOUTLETNODE,Air,3
 Node,206,CONFERENCE_5_Z36_SUPPLYINLET,Air,3
 Node,207,CONFERENCE_5_Z36_COOLC-HEATCNODE,Air,6
 Node,208,CONFERENCE_5_Z36_HEATC-FANNODE,Air,5
 Node,209,CONFERENCE_5_Z36_SUPPLYEQUIPMENTOUTLETNODE,Air,3
 Node,210,BREAK_ROOM_5_Z37_SUPPLYINLET,Air,3
 Node,211,BREAK_ROOM_5_Z37_COOLC-HEATCNODE,Air,6
 Node,212,BREAK_ROOM_5_Z37_HEATC-FANNODE,Air,5
 Node,213,BREAK_ROOM_5_Z37_SUPPLYEQUIPMENTOUTLETNODE,Air,3
 Node,214,MECHANICAL_5_Z38_SUPPLYINLET,Air,3
 Node,215,MECHANICAL_5_Z38_COOLC-HEATCNODE,Air,6
 Node,216,MECHANICAL_5_Z38_HEATC-FANNODE,Air,5
 Node,217,MECHANICAL_5_Z38_SUPPLYEQUIPMENTOUTLETNODE,Air,3
 Node,218,OFFICE_OPEN_5_Z39_SUPPLYINLET,Air,3
 Node,219,OFFICE_OPEN_5_Z39_COOLC-HEATCNODE,Air,6
 Node,220,OFFICE_OPEN_5_Z39_HEATC-FANNODE,Air,5
 Node,221,OFFICE_OPEN_5_Z39_SUPPLYEQUIPMENTOUTLETNODE,Air,3
 Node,222,OFFICE_PRIVATE_5_Z40_SUPPLYINLET,Air,3
 Node,223,OFFICE_PRIVATE_5_Z40_COOLC-HEATCNODE,Air,6
 Node,224,OFFICE_PRIVATE_5_Z40_HEATC-FANNODE,Air,5
 Node,225,OFFICE_PRIVATE_5_Z40_SUPPLYEQUIPMENTOUTLETNODE,Air,3
 Node,226,STORAGE_5_Z41_SUPPLYINLET,Air,3
 Node,227,STORAGE_5_Z41_COOLC-HEATCNODE,Air,6
 Node,228,STORAGE_5_Z41_HEATC-FANNODE,Air,5
 Node,229,STORAGE_5_Z41_SUPPLYEQUIPMENTOUTLETNODE,Air,3
 Node,230,LOBBY_6_Z42_SUPPLYINLET,Air,3
 Node,231,LOBBY_6_Z42_COOLC-HEATCNODE,Air,6
 Node,232,LOBBY_6_Z42_HEATC-FANNODE,Air,5
 Node,233,LOBBY_6_Z42_SUPPLYEQUIPMENTOUTLETNODE,Air,3
 Node,234,CONFERENCE_6_Z43_SUPPLYINLET,Air,3
 Node,235,CONFERENCE_6_Z43_COOLC-HEATCNODE,Air,6
 Node,236,CONFERENCE_6_Z43_HEATC-FANNODE,Air,5
 Node,237,CONFERENCE_6_Z43_SUPPLYEQUIPMENTOUTLETNODE,Air,3
 Node,238,MECHANICAL_6_Z44_SUPPLYINLET,Air,3
 Node,239,MECHANICAL_6_Z44_COOLC-HEATCNODE,Air,6
 Node,240,MECHANICAL_6_Z44_HEATC-FANNODE,Air,5
 Node,241,MECHANICAL_6_Z44_SUPPLYEQUIPMENTOUTLETNODE,Air,3
 Node,242,OFFICE_OPEN_6_Z45_SUPPLYINLET,Air,3
 Node,243,OFFICE_OPEN_6_Z45_COOLC-HEATCNODE,Air,6
 Node,244,OFFICE_OPEN_6_Z45_HEATC-FANNODE,Air,5
 Node,245,OFFICE_OPEN_6_Z45_SUPPLYEQUIPMENTOUTLETNODE,Air,3
 Node,246,OFFICE_PRIVATE_6_Z46_SUPPLYINLET,Air,3
 Node,247,OFFICE_PRIVATE_6_Z46_COOLC-HEATCNODE,Air,6
 Node,248,OFFICE_PRIVATE_6_Z46_HEATC-FANNODE,Air,5
 Node,249,OFFICE_PRIVATE_6_Z46_SUPPLYEQUIPMENTOUTLETNODE,Air,3
 Node,250,STORAGE_6_Z47_SUPPLYINLET,Air,3
 Node,251,STORAGE_6_Z47_COOLC-HEATCNODE,Air,6
 Node,252,STORAGE_6_Z47_HEATC-FANNODE,Air,5
 Node,253,STORAGE_6_Z47_SUPPLYEQUIPMENTOUTLETNODE,Air,3
 Node,254,LOBBY_7_Z48_SUPPLYINLET,Air,3
 Node,255,LOBBY_7_Z48_COOLC-HEATCNODE,Air,6
 Node,256,LOBBY_7_Z48_HEATC-FANNODE,Air,5
 Node,257,LOBBY_7_Z48_SUPPLYEQUIPMENTOUTLETNODE,Air,3
 Node,258,CONFERENCE_7_Z49_SUPPLYINLET,Air,3
 Node,259,CONFERENCE_7_Z49_COOLC-HEATCNODE,Air,6
 Node,260,CONFERENCE_7_Z49_HEATC-FANNODE,Air,5
 Node,261,CONFERENCE_7_Z49_SUPPLYEQUIPMENTOUTLETNODE,Air,3
 Node,262,BREAK_ROOM_7_Z50_SUPPLYINLET,Air,3
 Node,263,BREAK_ROOM_7_Z50_COOLC-HEATCNODE,Air,6
 Node,264,BREAK_ROOM_7_Z50_HEATC-FANNODE,Air,5
 Node,265,BREAK_ROOM_7_Z50_SUPPLYEQUIPMENTOUTLETNODE,Air,3
 Node,266,MECHANICAL_7_Z51_SUPPLYINLET,Air,3
 Node,267,MECHANICAL_7_Z51_COOLC-HEATCNODE,Air,6
 Node,268,MECHANICAL_7_Z51_HEATC-FANNODE,Air,5
 Node,269,MECHANICAL_7_Z51_SUPPLYEQUIPMENTOUTLETNODE,Air,3
 Node,270,OFFICE_OPEN_7_Z52_SUPPLYINLET,Air,3
 Node,271,OFFICE_OPEN_7_Z52_COOLC-HEATCNODE,Air,6
 Node,272,OFFICE_OPEN_7_Z52_HEATC-FANNODE,Air,5
 Node,273,OFFICE_OPEN_7_Z52_SUPPLYEQUIPMENTOUTLETNODE,Air,3
 Node,274,OFFICE_PRIVATE_7_Z53_SUPPLYINLET,Air,3
 Node,275,OFFICE_PRIVATE_7_Z53_COOLC-HEATCNODE,Air,6
 Node,276,OFFICE_PRIVATE_7_Z53_HEATC-FANNODE,Air,5
 Node,277,OFFICE_PRIVATE_7_Z53_SUPPLYEQUIPMENTOUTLETNODE,Air,3
 Node,278,STORAGE_7_Z54_SUPPLYINLET,Air,3
 Node,279,STORAGE_7_Z54_COOLC-HEATCNODE,Air,6
 Node,280,STORAGE_7_Z54_HEATC-FANNODE,Air,5
 Node,281,STORAGE_7_Z54_SUPPLYEQUIPMENTOUTLETNODE,Air,3
 Node,282,BREAK_ROOM_8_Z55_SUPPLYINLET,Air,3
 Node,283,BREAK_ROOM_8_Z55_COOLC-HEATCNODE,Air,6
 Node,284,BREAK_ROOM_8_Z55_HEATC-FANNODE,Air,5
 Node,285,BREAK_ROOM_8_Z55_SUPPLYEQUIPMENTOUTLETNODE,Air,3
 Node,286,MECHANICAL_8_Z56_SUPPLYINLET,Air,3
 Node,287,MECHANICAL_8_Z56_COOLC-HEATCNODE,Air,6
 Node,288,MECHANICAL_8_Z56_HEATC-FANNODE,Air,5
 Node,289,MECHANICAL_8_Z56_SUPPLYEQUIPMENTOUTLETNODE,Air,3
 Node,290,OFFICE_OPEN_8_Z57_SUPPLYINLET,Air,3
 Node,291,OFFICE_OPEN_8_Z57_COOLC-HEATCNODE,Air,6
 Node,292,OFFICE_OPEN_8_Z57_HEATC-FANNODE,Air,5
 Node,293,OFFICE_OPEN_8_Z57_SUPPLYEQUIPMENTOUTLETNODE,Air,3
 Node,294,OFFICE_PRIVATE_8_Z58_SUPPLYINLET,Air,3
 Node,295,OFFICE_PRIVATE_8_Z58_COOLC-HEATCNODE,Air,6
 Node,296,OFFICE_PRIVATE_8_Z58_HEATC-FANNODE,Air,5
 Node,297,OFFICE_PRIVATE_8_Z58_SUPPLYEQUIPMENTOUTLETNODE,Air,3
 Node,298,STORAGE_8_Z59_SUPPLYINLET,Air,3
 Node,299,STORAGE_8_Z59_COOLC-HEATCNODE,Air,6
 Node,300,STORAGE_8_Z59_HEATC-FANNODE,Air,5
 Node,301,STORAGE_8_Z59_SUPPLYEQUIPMENTOUTLETNODE,Air,3
 Node,302,LOBBY_9_Z60_SUPPLYINLET,Air,3
 Node,303,LOBBY_9_Z60_COOLC-HEATCNODE,Air,6
 Node,304,LOBBY_9_Z60_HEATC-FANNODE,Air,5
 Node,305,LOBBY_9_Z60_SUPPLYEQUIPMENTOUTLETNODE,Air,3
 Node,306,BREAK_ROOM_9_Z61_SUPPLYINLET,Air,3
 Node,307,BREAK_ROOM_9_Z61_COOLC-HEATCNODE,Air,6
 Node,308,BREAK_ROOM_9_Z61_HEATC-FANNODE,Air,5
 Node,309,BREAK_ROOM_9_Z61_SUPPLYEQUIPMENTOUTLETNODE,Air,3
 Node,310,MECHANICAL_9_Z62_SUPPLYINLET,Air,3
 Node,311,MECHANICAL_9_Z62_COOLC-HEATCNODE,Air,6
 Node,312,MECHANICAL_9_Z62_HEATC-FANNODE,Air,5
 Node,313,MECHANICAL_9_Z62_SUPPLYEQUIPMENTOUTLETNODE,Air,3
 Node,314,OFFICE_OPEN_9_Z63_SUPPLYINLET,Air,3
 Node,315,OFFICE_OPEN_9_Z63_COOLC-HEATCNODE,Air,6
 Node,316,OFFICE_OPEN_9_Z63_HEATC-FANNODE,Air,5
 Node,317,OFFICE_OPEN_9_Z63_SUPPLYEQUIPMENTOUTLETNODE,Air,3
 Node,318,OFFICE_PRIVATE_9_Z64_SUPPLYINLET,Air,3
 Node,319,OFFICE_PRIVATE_9_Z64_COOLC-HEATCNODE,Air,6
 Node,320,OFFICE_PRIVATE_9_Z64_HEATC-FANNODE,Air,5
 Node,321,OFFICE_PRIVATE_9_Z64_SUPPLYEQUIPMENTOUTLETNODE,Air,3
 Node,322,STORAGE_9_Z65_SUPPLYINLET,Air,3
 Node,323,STORAGE_9_Z65_COOLC-HEATCNODE,Air,6
 Node,324,STORAGE_9_Z65_HEATC-FANNODE,Air,5
 Node,325,STORAGE_9_Z65_SUPPLYEQUIPMENTOUTLETNODE,Air,3
 Node,326,LOBBY_0 AIR NODE,Air,0
 Node,327,LOBBY_0_Z1_RETURNAIR,Air,1
 Node,328,CONFERENCE_0 AIR NODE,Air,0
 Node,329,CONFERENCE_0_Z2_RETURNAIR,Air,1
 Node,330,BREAK_ROOM_0 AIR NODE,Air,0
 Node,331,BREAK_ROOM_0_Z3_RETURNAIR,Air,1
 Node,332,MECHANICAL_0 AIR NODE,Air,0
 Node,333,MECHANICAL_0_Z4_RETURNAIR,Air,1
 Node,334,OFFICE_OPEN_0 AIR NODE,Air,0
 Node,335,OFFICE_OPEN_0_Z5_RETURNAIR,Air,1
 Node,336,OFFICE_PRIVATE_0 AIR NODE,Air,0
 Node,337,OFFICE_PRIVATE_0_Z6_RETURNAIR,Air,1
 Node,338,STORAGE_0 AIR NODE,Air,0
 Node,339,STORAGE_0_Z7_RETURNAIR,Air,1
 Node,340,LOBBY_1 AIR NODE,Air,0
 Node,341,LOBBY_1_Z8_RETURNAIR,Air,1
 Node,342,CONFERENCE_1 AIR NODE,Air,0
 Node,343,CONFERENCE_1_Z9_RETURNAIR,Air,1
 Node,344,BREAK_ROOM_1 AIR NODE,Air,0
 Node,345,BREAK_ROOM_1_Z10_RETURNAIR,Air,1
 Node,346,MECHANICAL_1 AIR NODE,Air,0
 Node,347,MECHANICAL_1_Z11_RETURNAIR,Air,1
 Node,348,OFFICE_OPEN_1 AIR NODE,Air,0
 Node,349,OFFICE_OPEN_1_Z12_RETURNAIR,Air,1
 Node,350,OFFICE_PRIVATE_1 AIR NODE,Air,0
 Node,351,OFFICE_PRIVATE_1_Z13_RETURNAIR,Air,1
 Node,352,STORAGE_1 AIR NODE,Air,0
 Node,353,STORAGE_1_Z14_RETURNAIR,Air,1
 Node,354,LOBBY_2 AIR NODE,Air,0
 Node,355,LOBBY_2_Z15_RETURNAIR,Air,1
 Node,356,CONFERENCE_2 AIR NODE,Air,0
 Node,357,CONFERENCE_2_Z16_RETURNAIR,Air,1
 Node,358,MECHANICAL_2 AIR NODE,Air,0
 Node,359,MECHANICAL_2_Z17_RETURNAIR,Air,1
 Node,360,OFFICE_OPEN_2 AIR NODE,Air,0
 Node,361,OFFICE_OPEN_2_Z18_RETURNAIR,Air,1
 Node,362,OFFICE_PRIVATE_2 AIR NODE,Air,0
 Node,363,OFFICE_PRIVATE_2_Z19_RETURNAIR,Air,1
 Node,364,STORAGE_2 AIR NODE,Air,0
 Node,365,STORAGE_2_Z20_RETURNAIR,Air,1
 Node,366,LOBBY_3 AIR NODE,Air,0
 Node,367,LOBBY_3_Z21_RETURNAIR,Air,1
 Node,368,CONFERENCE_3 AIR NODE,Air,0
 Node,369,CONFERENCE_3_Z22_RETURNAIR,Air,1
 Node,370,BREAK_ROOM_3 AIR NODE,Air,0
 Node,371,BREAK_ROOM_3_Z23_RETURNAIR,Air,1
 Node,372,MECHANICAL_3 AIR NODE,Air,0
 Node,373,MECHANICAL_3_Z24_RETURNAIR,Air,1
 Node,374,OFFICE_OPEN_3 AIR NODE,Air,0
 Node,375,OFFICE_OPEN_3_Z25_RETURNAIR,Air,1
 Node,376,OFFICE_PRIVATE_3 AIR NODE,Air,0
 Node,377,OFFICE_PRIVATE_3_Z26_RETURNAIR,Air,1
 Node,378,STORAGE_3 AIR NODE,Air,0
 Node,379,STORAGE_3_Z27_RETURNAIR,Air,1
 Node,380,LOBBY_4 AIR NODE,Air,0
 Node,381,LOBBY_4_Z28_RETURNAIR,Air,1
 Node,382,CONFERENCE_4 AIR NODE,Air,0
 Node,383,CONFERENCE_4_Z29_RETURNAIR,Air,1
 Node,384,BREAK_ROOM_4 AIR NODE,Air,0
 Node,385,BREAK_ROOM_4_Z30_RETURNAIR,Air,1
 Node,386,MECHANICAL_4 AIR NODE,Air,0
 Node,387,MECHANICAL_4_Z31_RETURNAIR,Air,1
 Node,388,OFFICE_OPEN_4 AIR NODE,Air,0
 Node,389,OFFICE_OPEN_4_Z32_RETURNAIR,Air,1
 Node,390,OFFICE_PRIVATE_4 AIR NODE,Air,0
 Node,391,OFFICE_PRIVATE_4_Z33_RETURNAIR,Air,1
 Node,392,STORAGE_4 AIR NODE,Air,0
 Node,393,STORAGE_4_Z34_RETURNAIR,Air,1
 Node,394,LOBBY_5 AIR NODE,Air,0
 Node,395,LOBBY_5_Z35_RETURNAIR,Air,1
 Node,396,CONFERENCE_5 AIR NODE,Air,0
 Node,397,CONFERENCE_5_Z36_RETURNAIR,Air,1
 Node,398,BREAK_ROOM_5 AIR NODE,Air,0
 Node,399,BREAK_ROOM_5_Z37_RETURNAIR,Air,1
 Node,400,MECHANICAL_5 AIR NODE,Air,0
 Node,401,MECHANICAL_5_Z38_RETURNAIR,Air,1
 Node,402,OFFICE_OPEN_5 AIR NODE,Air,0
 Node,403,OFFICE_OPEN_5_Z39_RETURNAIR,Air,1
 Node,404,OFFICE_PRIVATE_5 AIR NODE,Air,0
 Node,405,OFFICE_PRIVATE_5_Z40_RETURNAIR,Air,1
 Node,406,STORAGE_5 AIR NODE,Air,0
 Node,407,STORAGE_5_Z41_RETURNAIR,Air,1
 Node,408,LOBBY_6 AIR NODE,Air,0
 Node,409,LOBBY_6_Z42_RETURNAIR,Air,1
 Node,410,CONFERENCE_6 AIR NODE,Air,0
 Node,411,CONFERENCE_6_Z43_RETURNAIR,Air,1
 Node,412,MECHANICAL_6 AIR NODE,Air,0
 Node,413,MECHANICAL_6_Z44_RETURNAIR,Air,1
 Node,414,OFFICE_OPEN_6 AIR NODE,Air,0
 Node,415,OFFICE_OPEN_6_Z45_RETURNAIR,Air,1
 Node,416,OFFICE_PRIVATE_6 AIR NODE,Air,0
 Node,417,OFFICE_PRIVATE_6_Z46_RETURNAIR,Air,1
 Node,418,STORAGE_6 AIR NODE,Air,0
 Node,419,STORAGE_6_Z47_RETURNAIR,Air,1
 Node,420,LOBBY_7 AIR NODE,Air,0
 Node,421,LOBBY_7_Z48_RETURNAIR,Air,1
 Node,422,CONFERENCE_7 AIR NODE,Air,0
 Node,423,CONFERENCE_7_Z49_RETURNAIR,Air,1
 Node,424,BREAK_ROOM_7 AIR NODE,Air,0
 Node,425,BREAK_ROOM_7_Z50_RETURNAIR,Air,1
 Node,426,MECHANICAL_7 AIR NODE,Air,0
 Node,427,MECHANICAL_7_Z51_RETURNAIR,Air,1
 Node,428,OFFICE_OPEN_7 AIR NODE,Air,0
 Node,429,OFFICE_OPEN_7_Z52_RETURNAIR,Air,1
 Node,430,OFFICE_PRIVATE_7 AIR NODE,Air,0
 Node,431,OFFICE_PRIVATE_7_Z53_RETURNAIR,Air,1
 Node,432,STORAGE_7 AIR NODE,Air,0
 Node,433,STORAGE_7_Z54_RETURNAIR,Air,1
 Node,434,BREAK_ROOM_8 AIR NODE,Air,0
 Node,435,BREAK_ROOM_8_Z55_RETURNAIR,Air,1
 Node,436,MECHANICAL_8 AIR NODE,Air,0
 Node,437,MECHANICAL_8_Z56_RETURNAIR,Air,1
 Node,438,OFFICE_OPEN_8 AIR NODE,Air,0
 Node,439,OFFICE_OPEN_8_Z57_RETURNAIR,Air,1
 Node,440,OFFICE_PRIVATE_8 AIR NODE,Air,0
 Node,441,OFFICE_PRIVATE_8_Z58_RETURNAIR,Air,1
 Node,442,STORAGE_8 AIR NODE,Air,0
 Node,443,STORAGE_8_Z59_RETURNAIR,Air,1
 Node,444,LOBBY_9 AIR NODE,Air,0
 Node,445,LOBBY_9_Z60_RETURNAIR,Air,1
 Node,446,BREAK_ROOM_9 AIR NODE,Air,0
 Node,447,BREAK_ROOM_9_Z61_RETURNAIR,Air,1
 Node,448,MECHANICAL_9 AIR NODE,Air,0
 Node,449,MECHANICAL_9_Z62_RETURNAIR,Air,1
 Node,450,OFFICE_OPEN_9 AIR NODE,Air,0
 Node,451,OFFICE_OPEN_9_Z63_RETURNAIR,Air,1
 Node,452,OFFICE_PRIVATE_9 AIR NODE,Air,0
 Node,453,OFFICE_PRIVATE_9_Z64_RETURNAIR,Air,1
 Node,454,STORAGE_9 AIR NODE,Air,0
 Node,455,STORAGE_9_Z65_RETURNAIR,Air,1
 Node,456,LOBBY_0_Z1_ZONEEQUIPMENTINLET,Air,2
 Node,457,CONFERENCE_0_Z2_ZONEEQUIPMENTINLET,Air,2
 Node,458,BREAK_ROOM_0_Z3_ZONEEQUIPMENTINLET,Air,2
 Node,459,MECHANICAL_0_Z4_ZONEEQUIPMENTINLET,Air,2
 Node,460,OFFICE_OPEN_0_Z5_ZONEEQUIPMENTINLET,Air,2
 Node,461,OFFICE_PRIVATE_0_Z6_ZONEEQUIPMENTINLET,Air,2
 Node,462,STORAGE_0_Z7_ZONEEQUIPMENTINLET,Air,2
 Node,463,LOBBY_1_Z8_ZONEEQUIPMENTINLET,Air,2
 Node,464,CONFERENCE_1_Z9_ZONEEQUIPMENTINLET,Air,2
 Node,465,BREAK_ROOM_1_Z10_ZONEEQUIPMENTINLET,Air,2
 Node,466,MECHANICAL_1_Z11_ZONEEQUIPMENTINLET,Air,2
 Node,467,OFFICE_OPEN_1_Z12_ZONEEQUIPMENTINLET,Air,2
 Node,468,OFFICE_PRIVATE_1_Z13_ZONEEQUIPMENTINLET,Air,2
 Node,469,STORAGE_1_Z14_ZONEEQUIPMENTINLET,Air,2
 Node,470,LOBBY_2_Z15_ZONEEQUIPMENTINLET,Air,2
 Node,471,CONFERENCE_2_Z16_ZONEEQUIPMENTINLET,Air,2
 Node,472,MECHANICAL_2_Z17_ZONEEQUIPMENTINLET,Air,2
 Node,473,OFFICE_OPEN_2_Z18_ZONEEQUIPMENTINLET,Air,2
 Node,474,OFFICE_PRIVATE_2_Z19_ZONEEQUIPMENTINLET,Air,2
 Node,475,STORAGE_2_Z20_ZONEEQUIPMENTINLET,Air,2
 Node,476,LOBBY_3_Z21_ZONEEQUIPMENTINLET,Air,2
 Node,477,CONFERENCE_3_Z22_ZONEEQUIPMENTINLET,Air,2
 Node,478,BREAK_ROOM_3_Z23_ZONEEQUIPMENTINLET,Air,2
 Node,479,MECHANICAL_3_Z24_ZONEEQUIPMENTINLET,Air,2
 Node,480,OFFICE_OPEN_3_Z25_ZONEEQUIPMENTINLET,Air,2
 Node,481,OFFICE_PRIVATE_3_Z26_ZONEEQUIPMENTINLET,Air,2
 Node,482,STORAGE_3_Z27_ZONEEQUIPMENTINLET,Air,2
 Node,483,LOBBY_4_Z28_ZONEEQUIPMENTINLET,Air,2
 Node,484,CONFERENCE_4_Z29_ZONEEQUIPMENTINLET,Air,2
 Node,485,BREAK_ROOM_4_Z30_ZONEEQUIPMENTINLET,Air,2
 Node,486,MECHANICAL_4_Z31_ZONEEQUIPMENTINLET,Air,2
 Node,487,OFFICE_OPEN_4_Z32_ZONEEQUIPMENTINLET,Air,2
 Node,488,OFFICE_PRIVATE_4_Z33_ZONEEQUIPMENTINLET,Air,2
 Node,489,STORAGE_4_Z34_ZONEEQUIPMENTINLET,Air,2
 Node,490,LOBBY_5_Z35_ZONEEQUIPMENTINLET,Air,2
 Node,491,CONFERENCE_5_Z36_ZONEEQUIPMENTINLET,Air,2
 Node,492,BREAK_ROOM_5_Z37_ZONEEQUIPMENTINLET,Air,2
 Node,493,MECHANICAL_5_Z38_ZONEEQUIPMENTINLET,Air,2
 Node,494,OFFICE_OPEN_5_Z39_ZONEEQUIPMENTINLET,Air,2
 Node,495,OFFICE_PRIVATE_5_Z40_ZONEEQUIPMENTINLET,Air,2
 Node,496,STORAGE_5_Z41_ZONEEQUIPMENTINLET,Air,2
 Node,497,LOBBY_6_Z42_ZONEEQUIPMENTINLET,Air,2
 Node,498,CONFERENCE_6_Z43_ZONEEQUIPMENTINLET,Air,2
 Node,499,MECHANICAL_6_Z44_ZONEEQUIPMENTINLET,Air,2
 Node,500,OFFICE_OPEN_6_Z45_ZONEEQUIPMENTINLET,Air,2
 Node,501,OFFICE_PRIVATE_6_Z46_ZONEEQUIPMENTINLET,Air,2
 Node,502,STORAGE_6_Z47_ZONEEQUIPMENTINLET,Air,2
 Node,503,LOBBY_7_Z48_ZONEEQUIPMENTINLET,Air,2
 Node,504,CONFERENCE_7_Z49_ZONEEQUIPMENTINLET,Air,2
 Node,505,BREAK_ROOM_7_Z50_ZONEEQUIPMENTINLET,Air,2
 Node,506,MECHANICAL_7_Z51_ZONEEQUIPMENTINLET,Air,2
 Node,507,OFFICE_OPEN_7_Z52_ZONEEQUIPMENTINLET,Air,2
 Node,508,OFFICE_PRIVATE_7_Z53_ZONEEQUIPMENTINLET,Air,2
 Node,509,STORAGE_7_Z54_ZONEEQUIPMENTINLET,Air,2
 Node,510,BREAK_ROOM_8_Z55_ZONEEQUIPMENTINLET,Air,2
 Node,511,MECHANICAL_8_Z56_ZONEEQUIPMENTINLET,Air,2
 Node,512,OFFICE_OPEN_8_Z57_ZONEEQUIPMENTINLET,Air,2
 Node,513,OFFICE_PRIVATE_8_Z58_ZONEEQUIPMENTINLET,Air,2
 Node,514,STORAGE_8_Z59_ZONEEQUIPMENTINLET,Air,2
 Node,515,LOBBY_9_Z60_ZONEEQUIPMENTINLET,Air,2
 Node,516,BREAK_ROOM_9_Z61_ZONEEQUIPMENTINLET,Air,2
 Node,517,MECHANICAL_9_Z62_ZONEEQUIPMENTINLET,Air,2
 Node,518,OFFICE_OPEN_9_Z63_ZONEEQUIPMENTINLET,Air,2
 Node,519,OFFICE_PRIVATE_9_Z64_ZONEEQUIPMENTINLET,Air,2
 Node,520,STORAGE_9_Z65_ZONEEQUIPMENTINLET,Air,2
 Node,521,LOBBY_0_Z1_ZONEEQUIPMENTOUTLETNODE,Air,2
 Node,522,CONFERENCE_0_Z2_ZONEEQUIPMENTOUTLETNODE,Air,2
 Node,523,BREAK_ROOM_0_Z3_ZONEEQUIPMENTOUTLETNODE,Air,2
 Node,524,MECHANICAL_0_Z4_ZONEEQUIPMENTOUTLETNODE,Air,2
 Node,525,OFFICE_OPEN_0_Z5_ZONEEQUIPMENTOUTLETNODE,Air,2
 Node,526,OFFICE_PRIVATE_0_Z6_ZONEEQUIPMENTOUTLETNODE,Air,2
 Node,527,STORAGE_0_Z7_ZONEEQUIPMENTOUTLETNODE,Air,2
 Node,528,LOBBY_1_Z8_ZONEEQUIPMENTOUTLETNODE,Air,2
 Node,529,CONFERENCE_1_Z9_ZONEEQUIPMENTOUTLETNODE,Air,2
 Node,530,BREAK_ROOM_1_Z10_ZONEEQUIPMENTOUTLETNODE,Air,2
 Node,531,MECHANICAL_1_Z11_ZONEEQUIPMENTOUTLETNODE,Air,2
 Node,532,OFFICE_OPEN_1_Z12_ZONEEQUIPMENTOUTLETNODE,Air,2
 Node,533,OFFICE_PRIVATE_1_Z13_ZONEEQUIPMENTOUTLETNODE,Air,2
 Node,534,STORAGE_1_Z14_ZONEEQUIPMENTOUTLETNODE,Air,2
 Node,535,LOBBY_2_Z15_ZONEEQUIPMENTOUTLETNODE,Air,2
 Node,536,CONFERENCE_2_Z16_ZONEEQUIPMENTOUTLETNODE,Air,2
 Node,537,MECHANICAL_2_Z17_ZONEEQUIPMENTOUTLETNODE,Air,2
 Node,538,OFFICE_OPEN_2_Z18_ZONEEQUIPMENTOUTLETNODE,Air,2
 Node,539,OFFICE_PRIVATE_2_Z19_ZONEEQUIPMENTOUTLETNODE,Air,2
 Node,540,STORAGE_2_Z20_ZONEEQUIPMENTOUTLETNODE,Air,2
 Node,541,LOBBY_3_Z21_ZONEEQUIPMENTOUTLETNODE,Air,2
 Node,542,CONFERENCE_3_Z22_ZONEEQUIPMENTOUTLETNODE,Air,2
 Node,543,BREAK_ROOM_3_Z23_ZONEEQUIPMENTOUTLETNODE,Air,2
 Node,544,MECHANICAL_3_Z24_ZONEEQUIPMENTOUTLETNODE,Air,2
 Node,545,OFFICE_OPEN_3_Z25_ZONEEQUIPMENTOUTLETNODE,Air,2
 Node,546,OFFICE_PRIVATE_3_Z26_ZONEEQUIPMENTOUTLETNODE,Air,2
 Node,547,STORAGE_3_Z27_ZONEEQUIPMENTOUTLETNODE,Air,2
 Node,548,LOBBY_4_Z28_ZONEEQUIPMENTOUTLETNODE,Air,2
 Node,549,CONFERENCE_4_Z29_ZONEEQUIPMENTOUTLETNODE,Air,2
 Node,550,BREAK_ROOM_4_Z30_ZONEEQUIPMENTOUTLETNODE,Air,2
 Node,551,MECHANICAL_4_Z31_ZONEEQUIPMENTOUTLETNODE,Air,2
 Node,552,OFFICE_OPEN_4_Z32_ZONEEQUIPMENTOUTLETNODE,Air,2
 Node,553,OFFICE_PRIVATE_4_Z33_ZONEEQUIPMENTOUTLETNODE,Air,2
 Node,554,STORAGE_4_Z34_ZONEEQUIPMENTOUTLETNODE,Air,2
 Node,555,LOBBY_5_Z35_ZONEEQUIPMENTOUTLETNODE,Air,2
 Node,556,CONFERENCE_5_Z36_ZONEEQUIPMENTOUTLETNODE,Air,2
 Node,557,BREAK_ROOM_5_Z37_ZONEEQUIPMENTOUTLETNODE,Air,2
 Node,558,MECHANICAL_5_Z38_ZONEEQUIPMENTOUTLETNODE,Air,2
 Node,559,OFFICE_OPEN_5_Z39_ZONEEQUIPMENTOUTLETNODE,Air,2
 Node,560,OFFICE_PRIVATE_5_Z40_ZONEEQUIPMENTOUTLETNODE,Air,2
 Node,561,STORAGE_5_Z41_ZONEEQUIPMENTOUTLETNODE,Air,2
 Node,562,LOBBY_6_Z42_ZONEEQUIPMENTOUTLETNODE,Air,2
 Node,563,CONFERENCE_6_Z43_ZONEEQUIPMENTOUTLETNODE,Air,2
 Node,564,MECHANICAL_6_Z44_ZONEEQUIPMENTOUTLETNODE,Air,2
 Node,565,OFFICE_OPEN_6_Z45_ZONEEQUIPMENTOUTLETNODE,Air,2
 Node,566,OFFICE_PRIVATE_6_Z46_ZONEEQUIPMENTOUTLETNODE,Air,2
 Node,567,STORAGE_6_Z47_ZONEEQUIPMENTOUTLETNODE,Air,2
 Node,568,LOBBY_7_Z48_ZONEEQUIPMENTOUTLETNODE,Air,2
 Node,569,CONFERENCE_7_Z49_ZONEEQUIPMENTOUTLETNODE,Air,2
 Node,570,BREAK_ROOM_7_Z50_ZONEEQUIPMENTOUTLETNODE,Air,2
 Node,571,MECHANICAL_7_Z51_ZONEEQUIPMENTOUTLETNODE,Air,2
 Node,572,OFFICE_OPEN_7_Z52_ZONEEQUIPMENTOUTLETNODE,Air,2
 Node,573,OFFICE_PRIVATE_7_Z53_ZONEEQUIPMENTOUTLETNODE,Air,2
 Node,574,STORAGE_7_Z54_ZONEEQUIPMENTOUTLETNODE,Air,2
 Node,575,BREAK_ROOM_8_Z55_ZONEEQUIPMENTOUTLETNODE,Air,2
 Node,576,MECHANICAL_8_Z56_ZONEEQUIPMENTOUTLETNODE,Air,2
 Node,577,OFFICE_OPEN_8_Z57_ZONEEQUIPMENTOUTLETNODE,Air,2
 Node,578,OFFICE_PRIVATE_8_Z58_ZONEEQUIPMENTOUTLETNODE,Air,2
 Node,579,STORAGE_8_Z59_ZONEEQUIPMENTOUTLETNODE,Air,2
 Node,580,LOBBY_9_Z60_ZONEEQUIPMENTOUTLETNODE,Air,2
 Node,581,BREAK_ROOM_9_Z61_ZONEEQUIPMENTOUTLETNODE,Air,2
 Node,582,MECHANICAL_9_Z62_ZONEEQUIPMENTOUTLETNODE,Air,2
 Node,583,OFFICE_OPEN_9_Z63_ZONEEQUIPMENTOUTLETNODE,Air,2
 Node,584,OFFICE_PRIVATE_9_Z64_ZONEEQUIPMENTOUTLETNODE,Air,2
 Node,585,STORAGE_9_Z65_ZONEEQUIPMENTOUTLETNODE,Air,2
 Node,586,LOBBY_0_Z1_TERMINALINLET,Air,1
 Node,587,CONFERENCE_0_Z2_TERMINALINLET,Air,1
 Node,588,BREAK_ROOM_0_Z3_TERMINALINLET,Air,1
 Node,589,MECHANICAL_0_Z4_TERMINALINLET,Air,1
 Node,590,OFFICE_OPEN_0_Z5_TERMINALINLET,Air,1
 Node,591,OFFICE_PRIVATE_0_Z6_TERMINALINLET,Air,1
 Node,592,STORAGE_0_Z7_TERMINALINLET,Air,1
 Node,593,LOBBY_1_Z8_TERMINALINLET,Air,1
 Node,594,CONFERENCE_1_Z9_TERMINALINLET,Air,1
 Node,595,BREAK_ROOM_1_Z10_TERMINALINLET,Air,1
 Node,596,MECHANICAL_1_Z11_TERMINALINLET,Air,1
 Node,597,OFFICE_OPEN_1_Z12_TERMINALINLET,Air,1
 Node,598,OFFICE_PRIVATE_1_Z13_TERMINALINLET,Air,1
 Node,599,STORAGE_1_Z14_TERMINALINLET,Air,1
 Node,600,LOBBY_2_Z15_TERMINALINLET,Air,1
 Node,601,CONFERENCE_2_Z16_TERMINALINLET,Air,1
 Node,602,MECHANICAL_2_Z17_TERMINALINLET,Air,1
 Node,603,OFFICE_OPEN_2_Z18_TERMINALINLET,Air,1
 Node,604,OFFICE_PRIVATE_2_Z19_TERMINALINLET,Air,1
 Node,605,STORAGE_2_Z20_TERMINALINLET,Air,1
 Node,606,LOBBY_3_Z21_TERMINALINLET,Air,1
 Node,607,CONFERENCE_3_Z22_TERMINALINLET,Air,1
 Node,608,BREAK_ROOM_3_Z23_TERMINALINLET,Air,1
 Node,609,MECHANICAL_3_Z24_TERMINALINLET,Air,1
 Node,610,OFFICE_OPEN_3_Z25_TERMINALINLET,Air,1
 Node,611,OFFICE_PRIVATE_3_Z26_TERMINALINLET,Air,1
 Node,612,STORAGE_3_Z27_TERMINALINLET,Air,1
 Node,613,LOBBY_4_Z28_TERMINALINLET,Air,1
 Node,614,CONFERENCE_4_Z29_TERMINALINLET,Air,1
 Node,615,BREAK_ROOM_4_Z30_TERMINALINLET,Air,1
 Node,616,MECHANICAL_4_Z31_TERMINALINLET,Air,1
 Node,617,OFFICE_OPEN_4_Z32_TERMINALINLET,Air,1
 Node,618,OFFICE_PRIVATE_4_Z33_TERMINALINLET,Air,1
 Node,619,STORAGE_4_Z34_TERMINALINLET,Air,1
 Node,620,LOBBY_5_Z35_TERMINALINLET,Air,1
 Node,621,CONFERENCE_5_Z36_TERMINALINLET,Air,1
 Node,622,BREAK_ROOM_5_Z37_TERMINALINLET,Air,1
 Node,623,MECHANICAL_5_Z38_TERMINALINLET,Air,1
 Node,624,OFFICE_OPEN_5_Z39_TERMINALINLET,Air,1
 Node,625,OFFICE_PRIVATE_5_Z40_TERMINALINLET,Air,1
 Node,626,STORAGE_5_Z41_TERMINALINLET,Air,1
 Node,627,LOBBY_6_Z42_TERMINALINLET,Air,1
 Node,628,CONFERENCE_6_Z43_TERMINALINLET,Air,1
 Node,629,MECHANICAL_6_Z44_TERMINALINLET,Air,1
 Node,630,OFFICE_OPEN_6_Z45_TERMINALINLET,Air,1
 Node,631,OFFICE_PRIVATE_6_Z46_TERMINALINLET,Air,1
 Node,632,STORAGE_6_Z47_TERMINALINLET,Air,1
 Node,633,LOBBY_7_Z48_TERMINALINLET,Air,1
 Node,634,CONFERENCE_7_Z49_TERMINALINLET,Air,1
 Node,635,BREAK_ROOM_7_Z50_TERMINALINLET,Air,1
 Node,636,MECHANICAL_7_Z51_TERMINALINLET,Air,1
 Node,637,OFFICE_OPEN_7_Z52_TERMINALINLET,Air,1
 Node,638,OFFICE_PRIVATE_7_Z53_TERMINALINLET,Air,1
 Node,639,STORAGE_7_Z54_TERMINALINLET,Air,1
 Node,640,BREAK_ROOM_8_Z55_TERMINALINLET,Air,1
 Node,641,MECHANICAL_8_Z56_TERMINALINLET,Air,1
 Node,642,OFFICE_OPEN_8_Z57_TERMINALINLET,Air,1
 Node,643,OFFICE_PRIVATE_8_Z58_TERMINALINLET,Air,1
 Node,644,STORAGE_8_Z59_TERMINALINLET,Air,1
 Node,645,LOBBY_9_Z60_TERMINALINLET,Air,1
 Node,646,BREAK_ROOM_9_Z61_TERMINALINLET,Air,1
 Node,647,MECHANICAL_9_Z62_TERMINALINLET,Air,1
 Node,648,OFFICE_OPEN_9_Z63_TERMINALINLET,Air,1
 Node,649,OFFICE_PRIVATE_9_Z64_TERMINALINLET,Air,1
 Node,650,STORAGE_9_Z65_TERMINALINLET,Air,1
 Node,651,LOBBY_0_Z1_TERMINALOUTLET,Air,1
 Node,652,CONFERENCE_0_Z2_TERMINALOUTLET,Air,1
 Node,653,BREAK_ROOM_0_Z3_TERMINALOUTLET,Air,1
 Node,654,MECHANICAL_0_Z4_TERMINALOUTLET,Air,1
 Node,655,OFFICE_OPEN_0_Z5_TERMINALOUTLET,Air,1
 Node,656,OFFICE_PRIVATE_0_Z6_TERMINALOUTLET,Air,1
 Node,657,STORAGE_0_Z7_TERMINALOUTLET,Air,1
 Node,658,LOBBY_1_Z8_TERMINALOUTLET,Air,1
 Node,659,CONFERENCE_1_Z9_TERMINALOUTLET,Air,1
 Node,660,BREAK_ROOM_1_Z10_TERMINALOUTLET,Air,1
 Node,661,MECHANICAL_1_Z11_TERMINALOUTLET,Air,1
 Node,662,OFFICE_OPEN_1_Z12_TERMINALOUTLET,Air,1
 Node,663,OFFICE_PRIVATE_1_Z13_TERMINALOUTLET,Air,1
 Node,664,STORAGE_1_Z14_TERMINALOUTLET,Air,1
 Node,665,LOBBY_2_Z15_TERMINALOUTLET,Air,1
 Node,666,CONFERENCE_2_Z16_TERMINALOUTLET,Air,1
 Node,667,MECHANICAL_2_Z17_TERMINALOUTLET,Air,1
 Node,668,OFFICE_OPEN_2_Z18_TERMINALOUTLET,Air,1
 Node,669,OFFICE_PRIVATE_2_Z19_TERMINALOUTLET,Air,1
 Node,670,STORAGE_2_Z20_TERMINALOUTLET,Air,1
 Node,671,LOBBY_3_Z21_TERMINALOUTLET,Air,1
 Node,672,CONFERENCE_3_Z22_TERMINALOUTLET,Air,1
 Node,673,BREAK_ROOM_3_Z23_TERMINALOUTLET,Air,1
 Node,674,MECHANICAL_3_Z24_TERMINALOUTLET,Air,1
 Node,675,OFFICE_OPEN_3_Z25_TERMINALOUTLET,Air,1
 Node,676,OFFICE_PRIVATE_3_Z26_TERMINALOUTLET,Air,1
 Node,677,STORAGE_3_Z27_TERMINALOUTLET,Air,1
 Node,678,LOBBY_4_Z28_TERMINALOUTLET,Air,1
 Node,679,CONFERENCE_4_Z29_TERMINALOUTLET,Air,1
 Node,680,BREAK_ROOM_4_Z30_TERMINALOUTLET,Air,1
 Node,681,MECHANICAL_4_Z31_TERMINALOUTLET,Air,1
 Node,682,OFFICE_OPEN_4_Z32_TERMINALOUTLET,Air,1
 Node,683,OFFICE_PRIVATE_4_Z33_TERMINALOUTLET,Air,1
 Node,684,STORAGE_4_Z34_TERMINALOUTLET,Air,1
 Node,685,LOBBY_5_Z35_TERMINALOUTLET,Air,1
 Node,686,CONFERENCE_5_Z36_TERMINALOUTLET,Air,1
 Node,687,BREAK_ROOM_5_Z37_TERMINALOUTLET,Air,1
 Node,688,MECHANICAL_5_Z38_TERMINALOUTLET,Air,1
 Node,689,OFFICE_OPEN_5_Z39_TERMINALOUTLET,Air,1
 Node,690,OFFICE_PRIVATE_5_Z40_TERMINALOUTLET,Air,1
 Node,691,STORAGE_5_Z41_TERMINALOUTLET,Air,1
 Node,692,LOBBY_6_Z42_TERMINALOUTLET,Air,1
 Node,693,CONFERENCE_6_Z43_TERMINALOUTLET,Air,1
 Node,694,MECHANICAL_6_Z44_TERMINALOUTLET,Air,1
 Node,695,OFFICE_OPEN_6_Z45_TERMINALOUTLET,Air,1
 Node,696,OFFICE_PRIVATE_6_Z46_TERMINALOUTLET,Air,1
 Node,697,STORAGE_6_Z47_TERMINALOUTLET,Air,1
 Node,698,LOBBY_7_Z48_TERMINALOUTLET,Air,1
 Node,699,CONFERENCE_7_Z49_TERMINALOUTLET,Air,1
 Node,700,BREAK_ROOM_7_Z50_TERMINALOUTLET,Air,1
 Node,701,MECHANICAL_7_Z51_TERMINALOUTLET,Air,1
 Node,702,OFFICE_OPEN_7_Z52_TERMINALOUTLET,Air,1
 Node,703,OFFICE_PRIVATE_7_Z53_TERMINALOUTLET,Air,1
 Node,704,STORAGE_7_Z54_TERMINALOUTLET,Air,1
 Node,705,BREAK_ROOM_8_Z55_TERMINALOUTLET,Air,1
 Node,706,MECHANICAL_8_Z56_TERMINALOUTLET,Air,1
 Node,707,OFFICE_OPEN_8_Z57_TERMINALOUTLET,Air,1
 Node,708,OFFICE_PRIVATE_8_Z58_TERMINALOUTLET,Air,1
 Node,709,STORAGE_8_Z59_TERMINALOUTLET,Air,1
 Node,710,LOBBY_9_Z60_TERMINALOUTLET,Air,1
 Node,711,BREAK_ROOM_9_Z61_TERMINALOUTLET,Air,1
 Node,712,MECHANICAL_9_Z62_TERMINALOUTLET,Air,1
 Node,713,OFFICE_OPEN_9_Z63_TERMINALOUTLET,Air,1
 Node,714,OFFICE_PRIVATE_9_Z64_TERMINALOUTLET,Air,1
 Node,715,STORAGE_9_Z65_TERMINALOUTLET,Air,1
! ===============================================================
! Suspicious nodes have 0 references.  It is normal for some nodes, however.
! Listing nodes with 0 references (culled from previous list):
! <Suspicious Node>,<NodeNumber>,<Node Name>,<Node Fluid Type>,<# Times Node Referenced After Definition>
 Suspicious Node,326,LOBBY_0 AIR NODE,Air,0
 Suspicious Node,328,CONFERENCE_0 AIR NODE,Air,0
 Suspicious Node,330,BREAK_ROOM_0 AIR NODE,Air,0
 Suspicious Node,332,MECHANICAL_0 AIR NODE,Air,0
 Suspicious Node,334,OFFICE_OPEN_0 AIR NODE,Air,0
 Suspicious Node,336,OFFICE_PRIVATE_0 AIR NODE,Air,0
 Suspicious Node,338,STORAGE_0 AIR NODE,Air,0
 Suspicious Node,340,LOBBY_1 AIR NODE,Air,0
 Suspicious Node,342,CONFERENCE_1 AIR NODE,Air,0
 Suspicious Node,344,BREAK_ROOM_1 AIR NODE,Air,0
 Suspicious Node,346,MECHANICAL_1 AIR NODE,Air,0
 Suspicious Node,348,OFFICE_OPEN_1 AIR NODE,Air,0
 Suspicious Node,350,OFFICE_PRIVATE_1 AIR NODE,Air,0
 Suspicious Node,352,STORAGE_1 AIR NODE,Air,0
 Suspicious Node,354,LOBBY_2 AIR NODE,Air,0
 Suspicious Node,356,CONFERENCE_2 AIR NODE,Air,0
 Suspicious Node,358,MECHANICAL_2 AIR NODE,Air,0
 Suspicious Node,360,OFFICE_OPEN_2 AIR NODE,Air,0
 Suspicious Node,362,OFFICE_PRIVATE_2 AIR NODE,Air,0
 Suspicious Node,364,STORAGE_2 AIR NODE,Air,0
 Suspicious Node,366,LOBBY_3 AIR NODE,Air,0
 Suspicious Node,368,CONFERENCE_3 AIR NODE,Air,0
 Suspicious Node,370,BREAK_ROOM_3 AIR NODE,Air,0
 Suspicious Node,372,MECHANICAL_3 AIR NODE,Air,0
 Suspicious Node,374,OFFICE_OPEN_3 AIR NODE,Air,0
 Suspicious Node,376,OFFICE_PRIVATE_3 AIR NODE,Air,0
 Suspicious Node,378,STORAGE_3 AIR NODE,Air,0
 Suspicious Node,380,LOBBY_4 AIR NODE,Air,0
 Suspicious Node,382,CONFERENCE_4 AIR NODE,Air,0
 Suspicious Node,384,BREAK_ROOM_4 AIR NODE,Air,0
 Suspicious Node,386,MECHANICAL_4 AIR NODE,Air,0
 Suspicious Node,388,OFFICE_OPEN_4 AIR NODE,Air,0
 Suspicious Node,390,OFFICE_PRIVATE_4 AIR NODE,Air,0
 Suspicious Node,392,STORAGE_4 AIR NODE,Air,0
 Suspicious Node,394,LOBBY_5 AIR NODE,Air,0
 Suspicious Node,396,CONFERENCE_5 AIR NODE,Air,0
 Suspicious Node,398,BREAK_ROOM_5 AIR NODE,Air,0
 Suspicious Node,400,MECHANICAL_5 AIR NODE,Air,0
 Suspicious Node,402,OFFICE_OPEN_5 AIR NODE,Air,0
 Suspicious Node,404,OFFICE_PRIVATE_5 AIR NODE,Air,0
 Suspicious Node,406,STORAGE_5 AIR NODE,Air,0
 Suspicious Node,408,LOBBY_6 AIR NODE,Air,0
 Suspicious Node,410,CONFERENCE_6 AIR NODE,Air,0
 Suspicious Node,412,MECHANICAL_6 AIR NODE,Air,0
 Suspicious Node,414,OFFICE_OPEN_6 AIR NODE,Air,0
 Suspicious Node,416,OFFICE_PRIVATE_6 AIR NODE,Air,0
 Suspicious Node,418,STORAGE_6 AIR NODE,Air,0
 Suspicious Node,420,LOBBY_7 AIR NODE,Air,0
 Suspicious Node,422,CONFERENCE_7 AIR NODE,Air,0
 Suspicious Node,424,BREAK_ROOM_7 AIR NODE,Air,0
 Suspicious Node,426,MECHANICAL_7 AIR NODE,Air,0
 Suspicious Node,428,OFFICE_OPEN_7 AIR NODE,Air,0
 Suspicious Node,430,OFFICE_PRIVATE_7 AIR NODE,Air,0
 Suspicious Node,432,STORAGE_7 AIR NODE,Air,0
 Suspicious Node,434,BREAK_ROOM_8 AIR NODE,Air,0
 Suspicious Node,436,MECHANICAL_8 AIR NODE,Air,0
 Suspicious Node,438,OFFICE_OPEN_8 AIR NODE,Air,0
 Suspicious Node,440,OFFICE_PRIVATE_8 AIR NODE,Air,0
 Suspicious Node,442,STORAGE_8 AIR NODE,Air,0
 Suspicious Node,444,LOBBY_9 AIR NODE,Air,0
 Suspicious Node,446,BREAK_ROOM_9 AIR NODE,Air,0
 Suspicious Node,448,MECHANICAL_9 AIR NODE,Air,0
 Suspicious Node,450,OFFICE_OPEN_9 AIR NODE,Air,0
 Suspicious Node,452,OFFICE_PRIVATE_9 AIR NODE,Air,0
 Suspicious Node,454,STORAGE_9 AIR NODE,Air,0
! ===============================================================
! <#Branch Lists>,<Number of Branch Lists>
 #Branch Lists,65
! <Branch List>,<Branch List Count>,<Branch List Name>,<Loop Name>,<Loop Type>,<Number of Branches>
! <Branch>,<Branch Count>,<Branch Name>,<Loop Name>,<Loop Type>,<Branch Inlet Node Name>,<Branch Outlet Node Name>
 Branch List,1,LOBBY_0_Z1_BRANCHLIST,LOBBY_0_Z1_AIRLOOP,Air,1
   Branch,1,LOBBY_0_Z1_MAINBRANCH,LOBBY_0_Z1_AIRLOOP,Air,LOBBY_0_Z1_SUPPLYINLET,LOBBY_0_Z1_SUPPLYEQUIPMENTOUTLETNODE
 Branch List,2,CONFERENCE_0_Z2_BRANCHLIST,CONFERENCE_0_Z2_AIRLOOP,Air,1
   Branch,1,CONFERENCE_0_Z2_MAINBRANCH,CONFERENCE_0_Z2_AIRLOOP,Air,CONFERENCE_0_Z2_SUPPLYINLET,CONFERENCE_0_Z2_SUPPLYEQUIPMENTOUTLETNODE
 Branch List,3,BREAK_ROOM_0_Z3_BRANCHLIST,BREAK_ROOM_0_Z3_AIRLOOP,Air,1
   Branch,1,BREAK_ROOM_0_Z3_MAINBRANCH,BREAK_ROOM_0_Z3_AIRLOOP,Air,BREAK_ROOM_0_Z3_SUPPLYINLET,BREAK_ROOM_0_Z3_SUPPLYEQUIPMENTOUTLETNODE
 Branch List,4,MECHANICAL_0_Z4_BRANCHLIST,MECHANICAL_0_Z4_AIRLOOP,Air,1
   Branch,1,MECHANICAL_0_Z4_MAINBRANCH,MECHANICAL_0_Z4_AIRLOOP,Air,MECHANICAL_0_Z4_SUPPLYINLET,MECHANICAL_0_Z4_SUPPLYEQUIPMENTOUTLETNODE
 Branch List,5,OFFICE_OPEN_0_Z5_BRANCHLIST,OFFICE_OPEN_0_Z5_AIRLOOP,Air,1
   Branch,1,OFFICE_OPEN_0_Z5_MAINBRANCH,OFFICE_OPEN_0_Z5_AIRLOOP,Air,OFFICE_OPEN_0_Z5_SUPPLYINLET,OFFICE_OPEN_0_Z5_SUPPLYEQUIPMENTOUTLETNODE
 Branch List,6,OFFICE_PRIVATE_0_Z6_BRANCHLIST,OFFICE_PRIVATE_0_Z6_AIRLOOP,Air,1
   Branch,1,OFFICE_PRIVATE_0_Z6_MAINBRANCH,OFFICE_PRIVATE_0_Z6_AIRLOOP,Air,OFFICE_PRIVATE_0_Z6_SUPPLYINLET,OFFICE_PRIVATE_0_Z6_SUPPLYEQUIPMENTOUTLETNODE
 Branch List,7,STORAGE_0_Z7_BRANCHLIST,STORAGE_0_Z7_AIRLOOP,Air,1
   Branch,1,STORAGE_0_Z7_MAINBRANCH,STORAGE_0_Z7_AIRLOOP,Air,STORAGE_0_Z7_SUPPLYINLET,STORAGE_0_Z7_SUPPLYEQUIPMENTOUTLETNODE
 Branch List,8,LOBBY_1_Z8_BRANCHLIST,LOBBY_1_Z8_AIRLOOP,Air,1
   Branch,1,LOBBY_1_Z8_MAINBRANCH,LOBBY_1_Z8_AIRLOOP,Air,LOBBY_1_Z8_SUPPLYINLET,LOBBY_1_Z8_SUPPLYEQUIPMENTOUTLETNODE
 Branch List,9,CONFERENCE_1_Z9_BRANCHLIST,CONFERENCE_1_Z9_AIRLOOP,Air,1
   Branch,1,CONFERENCE_1_Z9_MAINBRANCH,CONFERENCE_1_Z9_AIRLOOP,Air,CONFERENCE_1_Z9_SUPPLYINLET,CONFERENCE_1_Z9_SUPPLYEQUIPMENTOUTLETNODE
 Branch List,10,BREAK_ROOM_1_Z10_BRANCHLIST,BREAK_ROOM_1_Z10_AIRLOOP,Air,1
   Branch,1,BREAK_ROOM_1_Z10_MAINBRANCH,BREAK_ROOM_1_Z10_AIRLOOP,Air,BREAK_ROOM_1_Z10_SUPPLYINLET,BREAK_ROOM_1_Z10_SUPPLYEQUIPMENTOUTLETNODE
 Branch List,11,MECHANICAL_1_Z11_BRANCHLIST,MECHANICAL_1_Z11_AIRLOOP,Air,1
   Branch,1,MECHANICAL_1_Z11_MAINBRANCH,MECHANICAL_1_Z11_AIRLOOP,Air,MECHANICAL_1_Z11_SUPPLYINLET,MECHANICAL_1_Z11_SUPPLYEQUIPMENTOUTLETNODE
 Branch List,12,OFFICE_OPEN_1_Z12_BRANCHLIST,OFFICE_OPEN_1_Z12_AIRLOOP,Air,1
   Branch,1,OFFICE_OPEN_1_Z12_MAINBRANCH,OFFICE_OPEN_1_Z12_AIRLOOP,Air,OFFICE_OPEN_1_Z12_SUPPLYINLET,OFFICE_OPEN_1_Z12_SUPPLYEQUIPMENTOUTLETNODE
 Branch List,13,OFFICE_PRIVATE_1_Z13_BRANCHLIST,OFFICE_PRIVATE_1_Z13_AIRLOOP,Air,1
   Branch,1,OFFICE_PRIVATE_1_Z13_MAINBRANCH,OFFICE_PRIVATE_1_Z13_AIRLOOP,Air,OFFICE_PRIVATE_1_Z13_SUPPLYINLET,OFFICE_PRIVATE_1_Z13_SUPPLYEQUIPMENTOUTLETNODE
 Branch List,14,STORAGE_1_Z14_BRANCHLIST,STORAGE_1_Z14_AIRLOOP,Air,1
   Branch,1,STORAGE_1_Z14_MAINBRANCH,STORAGE_1_Z14_AIRLOOP,Air,STORAGE_1_Z14_SUPPLYINLET,STORAGE_1_Z14_SUPPLYEQUIPMENTOUTLETNODE
 Branch List,15,LOBBY_2_Z15_BRANCHLIST,LOBBY_2_Z15_AIRLOOP,Air,1
   Branch,1,LOBBY_2_Z15_MAINBRANCH,LOBBY_2_Z15_AIRLOOP,Air,LOBBY_2_Z15_SUPPLYINLET,LOBBY_2_Z15_SUPPLYEQUIPMENTOUTLETNODE
 Branch List,16,CONFERENCE_2_Z16_BRANCHLIST,CONFERENCE_2_Z16_AIRLOOP,Air,1
   Branch,1,CONFERENCE_2_Z16_MAINBRANCH,CONFERENCE_2_Z16_AIRLOOP,Air,CONFERENCE_2_Z16_SUPPLYINLET,CONFERENCE_2_Z16_SUPPLYEQUIPMENTOUTLETNODE
 Branch List,17,MECHANICAL_2_Z17_BRANCHLIST,MECHANICAL_2_Z17_AIRLOOP,Air,1
   Branch,1,MECHANICAL_2_Z17_MAINBRANCH,MECHANICAL_2_Z17_AIRLOOP,Air,MECHANICAL_2_Z17_SUPPLYINLET,MECHANICAL_2_Z17_SUPPLYEQUIPMENTOUTLETNODE
 Branch List,18,OFFICE_OPEN_2_Z18_BRANCHLIST,OFFICE_OPEN_2_Z18_AIRLOOP,Air,1
   Branch,1,OFFICE_OPEN_2_Z18_MAINBRANCH,OFFICE_OPEN_2_Z18_AIRLOOP,Air,OFFICE_OPEN_2_Z18_SUPPLYINLET,OFFICE_OPEN_2_Z18_SUPPLYEQUIPMENTOUTLETNODE
 Branch List,19,OFFICE_PRIVATE_2_Z19_BRANCHLIST,OFFICE_PRIVATE_2_Z19_AIRLOOP,Air,1
   Branch,1,OFFICE_PRIVATE_2_Z19_MAINBRANCH,OFFICE_PRIVATE_2_Z19_AIRLOOP,Air,OFFICE_PRIVATE_2_Z19_SUPPLYINLET,OFFICE_PRIVATE_2_Z19_SUPPLYEQUIPMENTOUTLETNODE
 Branch List,20,STORAGE_2_Z20_BRANCHLIST,STORAGE_2_Z20_AIRLOOP,Air,1
   Branch,1,STORAGE_2_Z20_MAINBRANCH,STORAGE_2_Z20_AIRLOOP,Air,STORAGE_2_Z20_SUPPLYINLET,STORAGE_2_Z20_SUPPLYEQUIPMENTOUTLETNODE
 Branch List,21,LOBBY_3_Z21_BRANCHLIST,LOBBY_3_Z21_AIRLOOP,Air,1
   Branch,1,LOBBY_3_Z21_MAINBRANCH,LOBBY_3_Z21_AIRLOOP,Air,LOBBY_3_Z21_SUPPLYINLET,LOBBY_3_Z21_SUPPLYEQUIPMENTOUTLETNODE
 Branch List,22,CONFERENCE_3_Z22_BRANCHLIST,CONFERENCE_3_Z22_AIRLOOP,Air,1
   Branch,1,CONFERENCE_3_Z22_MAINBRANCH,CONFERENCE_3_Z22_AIRLOOP,Air,CONFERENCE_3_Z22_SUPPLYINLET,CONFERENCE_3_Z22_SUPPLYEQUIPMENTOUTLETNODE
 Branch List,23,BREAK_ROOM_3_Z23_BRANCHLIST,BREAK_ROOM_3_Z23_AIRLOOP,Air,1
   Branch,1,BREAK_ROOM_3_Z23_MAINBRANCH,BREAK_ROOM_3_Z23_AIRLOOP,Air,BREAK_ROOM_3_Z23_SUPPLYINLET,BREAK_ROOM_3_Z23_SUPPLYEQUIPMENTOUTLETNODE
 Branch List,24,MECHANICAL_3_Z24_BRANCHLIST,MECHANICAL_3_Z24_AIRLOOP,Air,1
   Branch,1,MECHANICAL_3_Z24_MAINBRANCH,MECHANICAL_3_Z24_AIRLOOP,Air,MECHANICAL_3_Z24_SUPPLYINLET,MECHANICAL_3_Z24_SUPPLYEQUIPMENTOUTLETNODE
 Branch List,25,OFFICE_OPEN_3_Z25_BRANCHLIST,OFFICE_OPEN_3_Z25_AIRLOOP,Air,1
   Branch,1,OFFICE_OPEN_3_Z25_MAINBRANCH,OFFICE_OPEN_3_Z25_AIRLOOP,Air,OFFICE_OPEN_3_Z25_SUPPLYINLET,OFFICE_OPEN_3_Z25_SUPPLYEQUIPMENTOUTLETNODE
 Branch List,26,OFFICE_PRIVATE_3_Z26_BRANCHLIST,OFFICE_PRIVATE_3_Z26_AIRLOOP,Air,1
   Branch,1,OFFICE_PRIVATE_3_Z26_MAINBRANCH,OFFICE_PRIVATE_3_Z26_AIRLOOP,Air,OFFICE_PRIVATE_3_Z26_SUPPLYINLET,OFFICE_PRIVATE_3_Z26_SUPPLYEQUIPMENTOUTLETNODE
 Branch List,27,STORAGE_3_Z27_BRANCHLIST,STORAGE_3_Z27_AIRLOOP,Air,1
   Branch,1,STORAGE_3_Z27_MAINBRANCH,STORAGE_3_Z27_AIRLOOP,Air,STORAGE_3_Z27_SUPPLYINLET,STORAGE_3_Z27_SUPPLYEQUIPMENTOUTLETNODE
 Branch List,28,LOBBY_4_Z28_BRANCHLIST,LOBBY_4_Z28_AIRLOOP,Air,1
   Branch,1,LOBBY_4_Z28_MAINBRANCH,LOBBY_4_Z28_AIRLOOP,Air,LOBBY_4_Z28_SUPPLYINLET,LOBBY_4_Z28_SUPPLYEQUIPMENTOUTLETNODE
 Branch List,29,CONFERENCE_4_Z29_BRANCHLIST,CONFERENCE_4_Z29_AIRLOOP,Air,1
   Branch,1,CONFERENCE_4_Z29_MAINBRANCH,CONFERENCE_4_Z29_AIRLOOP,Air,CONFERENCE_4_Z29_SUPPLYINLET,CONFERENCE_4_Z29_SUPPLYEQUIPMENTOUTLETNODE
 Branch List,30,BREAK_ROOM_4_Z30_BRANCHLIST,BREAK_ROOM_4_Z30_AIRLOOP,Air,1
   Branch,1,BREAK_ROOM_4_Z30_MAINBRANCH,BREAK_ROOM_4_Z30_AIRLOOP,Air,BREAK_ROOM_4_Z30_SUPPLYINLET,BREAK_ROOM_4_Z30_SUPPLYEQUIPMENTOUTLETNODE
 Branch List,31,MECHANICAL_4_Z31_BRANCHLIST,MECHANICAL_4_Z31_AIRLOOP,Air,1
   Branch,1,MECHANICAL_4_Z31_MAINBRANCH,MECHANICAL_4_Z31_AIRLOOP,Air,MECHANICAL_4_Z31_SUPPLYINLET,MECHANICAL_4_Z31_SUPPLYEQUIPMENTOUTLETNODE
 Branch List,32,OFFICE_OPEN_4_Z32_BRANCHLIST,OFFICE_OPEN_4_Z32_AIRLOOP,Air,1
   Branch,1,OFFICE_OPEN_4_Z32_MAINBRANCH,OFFICE_OPEN_4_Z32_AIRLOOP,Air,OFFICE_OPEN_4_Z32_SUPPLYINLET,OFFICE_OPEN_4_Z32_SUPPLYEQUIPMENTOUTLETNODE
 Branch List,33,OFFICE_PRIVATE_4_Z33_BRANCHLIST,OFFICE_PRIVATE_4_Z33_AIRLOOP,Air,1
   Branch,1,OFFICE_PRIVATE_4_Z33_MAINBRANCH,OFFICE_PRIVATE_4_Z33_AIRLOOP,Air,OFFICE_PRIVATE_4_Z33_SUPPLYINLET,OFFICE_PRIVATE_4_Z33_SUPPLYEQUIPMENTOUTLETNODE
 Branch List,34,STORAGE_4_Z34_BRANCHLIST,STORAGE_4_Z34_AIRLOOP,Air,1
   Branch,1,STORAGE_4_Z34_MAINBRANCH,STORAGE_4_Z34_AIRLOOP,Air,STORAGE_4_Z34_SUPPLYINLET,STORAGE_4_Z34_SUPPLYEQUIPMENTOUTLETNODE
 Branch List,35,LOBBY_5_Z35_BRANCHLIST,LOBBY_5_Z35_AIRLOOP,Air,1
   Branch,1,LOBBY_5_Z35_MAINBRANCH,LOBBY_5_Z35_AIRLOOP,Air,LOBBY_5_Z35_SUPPLYINLET,LOBBY_5_Z35_SUPPLYEQUIPMENTOUTLETNODE
 Branch List,36,CONFERENCE_5_Z36_BRANCHLIST,CONFERENCE_5_Z36_AIRLOOP,Air,1
   Branch,1,CONFERENCE_5_Z36_MAINBRANCH,CONFERENCE_5_Z36_AIRLOOP,Air,CONFERENCE_5_Z36_SUPPLYINLET,CONFERENCE_5_Z36_SUPPLYEQUIPMENTOUTLETNODE
 Branch List,37,BREAK_ROOM_5_Z37_BRANCHLIST,BREAK_ROOM_5_Z37_AIRLOOP,Air,1
   Branch,1,BREAK_ROOM_5_Z37_MAINBRANCH,BREAK_ROOM_5_Z37_AIRLOOP,Air,BREAK_ROOM_5_Z37_SUPPLYINLET,BREAK_ROOM_5_Z37_SUPPLYEQUIPMENTOUTLETNODE
 Branch List,38,MECHANICAL_5_Z38_BRANCHLIST,MECHANICAL_5_Z38_AIRLOOP,Air,1
   Branch,1,MECHANICAL_5_Z38_MAINBRANCH,MECHANICAL_5_Z38_AIRLOOP,Air,MECHANICAL_5_Z38_SUPPLYINLET,MECHANICAL_5_Z38_SUPPLYEQUIPMENTOUTLETNODE
 Branch List,39,OFFICE_OPEN_5_Z39_BRANCHLIST,OFFICE_OPEN_5_Z39_AIRLOOP,Air,1
   Branch,1,OFFICE_OPEN_5_Z39_MAINBRANCH,OFFICE_OPEN_5_Z39_AIRLOOP,Air,OFFICE_OPEN_5_Z39_SUPPLYINLET,OFFICE_OPEN_5_Z39_SUPPLYEQUIPMENTOUTLETNODE
 Branch List,40,OFFICE_PRIVATE_5_Z40_BRANCHLIST,OFFICE_PRIVATE_5_Z40_AIRLOOP,Air,1
   Branch,1,OFFICE_PRIVATE_5_Z40_MAINBRANCH,OFFICE_PRIVATE_5_Z40_AIRLOOP,Air,OFFICE_PRIVATE_5_Z40_SUPPLYINLET,OFFICE_PRIVATE_5_Z40_SUPPLYEQUIPMENTOUTLETNODE
 Branch List,41,STORAGE_5_Z41_BRANCHLIST,STORAGE_5_Z41_AIRLOOP,Air,1
   Branch,1,STORAGE_5_Z41_MAINBRANCH,STORAGE_5_Z41_AIRLOOP,Air,STORAGE_5_Z41_SUPPLYINLET,STORAGE_5_Z41_SUPPLYEQUIPMENTOUTLETNODE
 Branch List,42,LOBBY_6_Z42_BRANCHLIST,LOBBY_6_Z42_AIRLOOP,Air,1
   Branch,1,LOBBY_6_Z42_MAINBRANCH,LOBBY_6_Z42_AIRLOOP,Air,LOBBY_6_Z42_SUPPLYINLET,LOBBY_6_Z42_SUPPLYEQUIPMENTOUTLETNODE
 Branch List,43,CONFERENCE_6_Z43_BRANCHLIST,CONFERENCE_6_Z43_AIRLOOP,Air,1
   Branch,1,CONFERENCE_6_Z43_MAINBRANCH,CONFERENCE_6_Z43_AIRLOOP,Air,CONFERENCE_6_Z43_SUPPLYINLET,CONFERENCE_6_Z43_SUPPLYEQUIPMENTOUTLETNODE
 Branch List,44,MECHANICAL_6_Z44_BRANCHLIST,MECHANICAL_6_Z44_AIRLOOP,Air,1
   Branch,1,MECHANICAL_6_Z44_MAINBRANCH,MECHANICAL_6_Z44_AIRLOOP,Air,MECHANICAL_6_Z44_SUPPLYINLET,MECHANICAL_6_Z44_SUPPLYEQUIPMENTOUTLETNODE
 Branch List,45,OFFICE_OPEN_6_Z45_BRANCHLIST,OFFICE_OPEN_6_Z45_AIRLOOP,Air,1
   Branch,1,OFFICE_OPEN_6_Z45_MAINBRANCH,OFFICE_OPEN_6_Z45_AIRLOOP,Air,OFFICE_OPEN_6_Z45_SUPPLYINLET,OFFICE_OPEN_6_Z45_SUPPLYEQUIPMENTOUTLETNODE
 Branch List,46,OFFICE_PRIVATE_6_Z46_BRANCHLIST,OFFICE_PRIVATE_6_Z46_AIRLOOP,Air,1
   Branch,1,OFFICE_PRIVATE_6_Z46_MAINBRANCH,OFFICE_PRIVATE_6_Z46_AIRLOOP,Air,OFFICE_PRIVATE_6_Z46_SUPPLYINLET,OFFICE_PRIVATE_6_Z46_SUPPLYEQUIPMENTOUTLETNODE
 Branch List,47,STORAGE_6_Z47_BRANCHLIST,STORAGE_6_Z47_AIRLOOP,Air,1
   Branch,1,STORAGE_6_Z47_MAINBRANCH,STORAGE_6_Z47_AIRLOOP,Air,STORAGE_6_Z47_SUPPLYINLET,STORAGE_6_Z47_SUPPLYEQUIPMENTOUTLETNODE
 Branch List,48,LOBBY_7_Z48_BRANCHLIST,LOBBY_7_Z48_AIRLOOP,Air,1
   Branch,1,LOBBY_7_Z48_MAINBRANCH,LOBBY_7_Z48_AIRLOOP,Air,LOBBY_7_Z48_SUPPLYINLET,LOBBY_7_Z48_SUPPLYEQUIPMENTOUTLETNODE
 Branch List,49,CONFERENCE_7_Z49_BRANCHLIST,CONFERENCE_7_Z49_AIRLOOP,Air,1
   Branch,1,CONFERENCE_7_Z49_MAINBRANCH,CONFERENCE_7_Z49_AIRLOOP,Air,CONFERENCE_7_Z49_SUPPLYINLET,CONFERENCE_7_Z49_SUPPLYEQUIPMENTOUTLETNODE
 Branch List,50,BREAK_ROOM_7_Z50_BRANCHLIST,BREAK_ROOM_7_Z50_AIRLOOP,Air,1
   Branch,1,BREAK_ROOM_7_Z50_MAINBRANCH,BREAK_ROOM_7_Z50_AIRLOOP,Air,BREAK_ROOM_7_Z50_SUPPLYINLET,BREAK_ROOM_7_Z50_SUPPLYEQUIPMENTOUTLETNODE
 Branch List,51,MECHANICAL_7_Z51_BRANCHLIST,MECHANICAL_7_Z51_AIRLOOP,Air,1
   Branch,1,MECHANICAL_7_Z51_MAINBRANCH,MECHANICAL_7_Z51_AIRLOOP,Air,MECHANICAL_7_Z51_SUPPLYINLET,MECHANICAL_7_Z51_SUPPLYEQUIPMENTOUTLETNODE
 Branch List,52,OFFICE_OPEN_7_Z52_BRANCHLIST,OFFICE_OPEN_7_Z52_AIRLOOP,Air,1
   Branch,1,OFFICE_OPEN_7_Z52_MAINBRANCH,OFFICE_OPEN_7_Z52_AIRLOOP,Air,OFFICE_OPEN_7_Z52_SUPPLYINLET,OFFICE_OPEN_7_Z52_SUPPLYEQUIPMENTOUTLETNODE
 Branch List,53,OFFICE_PRIVATE_7_Z53_BRANCHLIST,OFFICE_PRIVATE_7_Z53_AIRLOOP,Air,1
   Branch,1,OFFICE_PRIVATE_7_Z53_MAINBRANCH,OFFICE_PRIVATE_7_Z53_AIRLOOP,Air,OFFICE_PRIVATE_7_Z53_SUPPLYINLET,OFFICE_PRIVATE_7_Z53_SUPPLYEQUIPMENTOUTLETNODE
 Branch List,54,STORAGE_7_Z54_BRANCHLIST,STORAGE_7_Z54_AIRLOOP,Air,1
   Branch,1,STORAGE_7_Z54_MAINBRANCH,STORAGE_7_Z54_AIRLOOP,Air,STORAGE_7_Z54_SUPPLYINLET,STORAGE_7_Z54_SUPPLYEQUIPMENTOUTLETNODE
 Branch List,55,BREAK_ROOM_8_Z55_BRANCHLIST,BREAK_ROOM_8_Z55_AIRLOOP,Air,1
   Branch,1,BREAK_ROOM_8_Z55_MAINBRANCH,BREAK_ROOM_8_Z55_AIRLOOP,Air,BREAK_ROOM_8_Z55_SUPPLYINLET,BREAK_ROOM_8_Z55_SUPPLYEQUIPMENTOUTLETNODE
 Branch List,56,MECHANICAL_8_Z56_BRANCHLIST,MECHANICAL_8_Z56_AIRLOOP,Air,1
   Branch,1,MECHANICAL_8_Z56_MAINBRANCH,MECHANICAL_8_Z56_AIRLOOP,Air,MECHANICAL_8_Z56_SUPPLYINLET,MECHANICAL_8_Z56_SUPPLYEQUIPMENTOUTLETNODE
 Branch List,57,OFFICE_OPEN_8_Z57_BRANCHLIST,OFFICE_OPEN_8_Z57_AIRLOOP,Air,1
   Branch,1,OFFICE_OPEN_8_Z57_MAINBRANCH,OFFICE_OPEN_8_Z57_AIRLOOP,Air,OFFICE_OPEN_8_Z57_SUPPLYINLET,OFFICE_OPEN_8_Z57_SUPPLYEQUIPMENTOUTLETNODE
 Branch List,58,OFFICE_PRIVATE_8_Z58_BRANCHLIST,OFFICE_PRIVATE_8_Z58_AIRLOOP,Air,1
   Branch,1,OFFICE_PRIVATE_8_Z58_MAINBRANCH,OFFICE_PRIVATE_8_Z58_AIRLOOP,Air,OFFICE_PRIVATE_8_Z58_SUPPLYINLET,OFFICE_PRIVATE_8_Z58_SUPPLYEQUIPMENTOUTLETNODE
 Branch List,59,STORAGE_8_Z59_BRANCHLIST,STORAGE_8_Z59_AIRLOOP,Air,1
   Branch,1,STORAGE_8_Z59_MAINBRANCH,STORAGE_8_Z59_AIRLOOP,Air,STORAGE_8_Z59_SUPPLYINLET,STORAGE_8_Z59_SUPPLYEQUIPMENTOUTLETNODE
 Branch List,60,LOBBY_9_Z60_BRANCHLIST,LOBBY_9_Z60_AIRLOOP,Air,1
   Branch,1,LOBBY_9_Z60_MAINBRANCH,LOBBY_9_Z60_AIRLOOP,Air,LOBBY_9_Z60_SUPPLYINLET,LOBBY_9_Z60_SUPPLYEQUIPMENTOUTLETNODE
 Branch List,61,BREAK_ROOM_9_Z61_BRANCHLIST,BREAK_ROOM_9_Z61_AIRLOOP,Air,1
   Branch,1,BREAK_ROOM_9_Z61_MAINBRANCH,BREAK_ROOM_9_Z61_AIRLOOP,Air,BREAK_ROOM_9_Z61_SUPPLYINLET,BREAK_ROOM_9_Z61_SUPPLYEQUIPMENTOUTLETNODE
 Branch List,62,MECHANICAL_9_Z62_BRANCHLIST,MECHANICAL_9_Z62_AIRLOOP,Air,1
   Branch,1,MECHANICAL_9_Z62_MAINBRANCH,MECHANICAL_9_Z62_AIRLOOP,Air,MECHANICAL_9_Z62_SUPPLYINLET,MECHANICAL_9_Z62_SUPPLYEQUIPMENTOUTLETNODE
 Branch List,63,OFFICE_OPEN_9_Z63_BRANCHLIST,OFFICE_OPEN_9_Z63_AIRLOOP,Air,1
   Branch,1,OFFICE_OPEN_9_Z63_MAINBRANCH,OFFICE_OPEN_9_Z63_AIRLOOP,Air,OFFICE_OPEN_9_Z63_SUPPLYINLET,OFFICE_OPEN_9_Z63_SUPPLYEQUIPMENTOUTLETNODE
 Branch List,64,OFFICE_PRIVATE_9_Z64_BRANCHLIST,OFFICE_PRIVATE_9_Z64_AIRLOOP,Air,1
   Branch,1,OFFICE_PRIVATE_9_Z64_MAINBRANCH,OFFICE_PRIVATE_9_Z64_AIRLOOP,Air,OFFICE_PRIVATE_9_Z64_SUPPLYINLET,OFFICE_PRIVATE_9_Z64_SUPPLYEQUIPMENTOUTLETNODE
 Branch List,65,STORAGE_9_Z65_BRANCHLIST,STORAGE_9_Z65_AIRLOOP,Air,1
   Branch,1,STORAGE_9_Z65_MAINBRANCH,STORAGE_9_Z65_AIRLOOP,Air,STORAGE_9_Z65_SUPPLYINLET,STORAGE_9_Z65_SUPPLYEQUIPMENTOUTLETNODE
! ===============================================================
! <#Supply Air Paths>,<Number of Supply Air Paths>
 #Supply Air Paths,65
! <Supply Air Path>,<Supply Air Path Count>,<Supply Air Path Name>,<AirLoopHVAC Name>
! <#Components on Supply Air Path>,<Number of Components>
! <Supply Air Path Component>,<Component Count>,<Component Type>,<Component Name>,<AirLoopHVAC Name>
! <#Outlet Nodes on Supply Air Path Component>,<Number of Nodes>
! <Supply Air Path Component Nodes>,<Node Count>,<Component Type>,<Component Name>,<Inlet Node Name>,<Outlet Node Name>,<AirLoopHVAC Name>
 Supply Air Path,1,LOBBY_0_Z1,LOBBY_0_Z1_AIRLOOP
   #Components on Supply Air Path,1
   Supply Air Path Component,1,AIRLOOPHVAC:ZONESPLITTER,LOBBY_0_Z1_SUPPLYSPLITTER,LOBBY_0_Z1_AIRLOOP
     #Outlet Nodes on Supply Air Path Component,1
     Supply Air Path Component Nodes,1,AIRLOOPHVAC:ZONESPLITTER,LOBBY_0_Z1_SUPPLYSPLITTER,LOBBY_0_Z1_ZONEEQUIPMENTINLET,LOBBY_0_Z1_TERMINALINLET,LOBBY_0_Z1_AIRLOOP
! <#Nodes on Supply Air Path>,<Number of Nodes>
! <Supply Air Path Node>,<Node Type>,<Node Count>,<Node Name>,<AirLoopHVAC Name>
#Nodes on Supply Air Path,2
   Supply Air Path Node,Inlet Node,1,LOBBY_0_Z1_ZONEEQUIPMENTINLET,LOBBY_0_Z1_AIRLOOP
   Supply Air Path Node,Outlet Node,2,LOBBY_0_Z1_TERMINALINLET,LOBBY_0_Z1_AIRLOOP
 Supply Air Path,2,CONFERENCE_0_Z2,CONFERENCE_0_Z2_AIRLOOP
   #Components on Supply Air Path,1
   Supply Air Path Component,1,AIRLOOPHVAC:ZONESPLITTER,CONFERENCE_0_Z2_SUPPLYSPLITTER,CONFERENCE_0_Z2_AIRLOOP
     #Outlet Nodes on Supply Air Path Component,1
     Supply Air Path Component Nodes,1,AIRLOOPHVAC:ZONESPLITTER,CONFERENCE_0_Z2_SUPPLYSPLITTER,CONFERENCE_0_Z2_ZONEEQUIPMENTINLET,CONFERENCE_0_Z2_TERMINALINLET,CONFERENCE_0_Z2_AIRLOOP
! <#Nodes on Supply Air Path>,<Number of Nodes>
! <Supply Air Path Node>,<Node Type>,<Node Count>,<Node Name>,<AirLoopHVAC Name>
#Nodes on Supply Air Path,2
   Supply Air Path Node,Inlet Node,1,CONFERENCE_0_Z2_ZONEEQUIPMENTINLET,CONFERENCE_0_Z2_AIRLOOP
   Supply Air Path Node,Outlet Node,2,CONFERENCE_0_Z2_TERMINALINLET,CONFERENCE_0_Z2_AIRLOOP
 Supply Air Path,3,BREAK_ROOM_0_Z3,BREAK_ROOM_0_Z3_AIRLOOP
   #Components on Supply Air Path,1
   Supply Air Path Component,1,AIRLOOPHVAC:ZONESPLITTER,BREAK_ROOM_0_Z3_SUPPLYSPLITTER,BREAK_ROOM_0_Z3_AIRLOOP
     #Outlet Nodes on Supply Air Path Component,1
     Supply Air Path Component Nodes,1,AIRLOOPHVAC:ZONESPLITTER,BREAK_ROOM_0_Z3_SUPPLYSPLITTER,BREAK_ROOM_0_Z3_ZONEEQUIPMENTINLET,BREAK_ROOM_0_Z3_TERMINALINLET,BREAK_ROOM_0_Z3_AIRLOOP
! <#Nodes on Supply Air Path>,<Number of Nodes>
! <Supply Air Path Node>,<Node Type>,<Node Count>,<Node Name>,<AirLoopHVAC Name>
#Nodes on Supply Air Path,2
   Supply Air Path Node,Inlet Node,1,BREAK_ROOM_0_Z3_ZONEEQUIPMENTINLET,BREAK_ROOM_0_Z3_AIRLOOP
   Supply Air Path Node,Outlet Node,2,BREAK_ROOM_0_Z3_TERMINALINLET,BREAK_ROOM_0_Z3_AIRLOOP
 Supply Air Path,4,MECHANICAL_0_Z4,MECHANICAL_0_Z4_AIRLOOP
   #Components on Supply Air Path,1
   Supply Air Path Component,1,AIRLOOPHVAC:ZONESPLITTER,MECHANICAL_0_Z4_SUPPLYSPLITTER,MECHANICAL_0_Z4_AIRLOOP
     #Outlet Nodes on Supply Air Path Component,1
     Supply Air Path Component Nodes,1,AIRLOOPHVAC:ZONESPLITTER,MECHANICAL_0_Z4_SUPPLYSPLITTER,MECHANICAL_0_Z4_ZONEEQUIPMENTINLET,MECHANICAL_0_Z4_TERMINALINLET,MECHANICAL_0_Z4_AIRLOOP
! <#Nodes on Supply Air Path>,<Number of Nodes>
! <Supply Air Path Node>,<Node Type>,<Node Count>,<Node Name>,<AirLoopHVAC Name>
#Nodes on Supply Air Path,2
   Supply Air Path Node,Inlet Node,1,MECHANICAL_0_Z4_ZONEEQUIPMENTINLET,MECHANICAL_0_Z4_AIRLOOP
   Supply Air Path Node,Outlet Node,2,MECHANICAL_0_Z4_TERMINALINLET,MECHANICAL_0_Z4_AIRLOOP
 Supply Air Path,5,OFFICE_OPEN_0_Z5,OFFICE_OPEN_0_Z5_AIRLOOP
   #Components on Supply Air Path,1
   Supply Air Path Component,1,AIRLOOPHVAC:ZONESPLITTER,OFFICE_OPEN_0_Z5_SUPPLYSPLITTER,OFFICE_OPEN_0_Z5_AIRLOOP
     #Outlet Nodes on Supply Air Path Component,1
     Supply Air Path Component Nodes,1,AIRLOOPHVAC:ZONESPLITTER,OFFICE_OPEN_0_Z5_SUPPLYSPLITTER,OFFICE_OPEN_0_Z5_ZONEEQUIPMENTINLET,OFFICE_OPEN_0_Z5_TERMINALINLET,OFFICE_OPEN_0_Z5_AIRLOOP
! <#Nodes on Supply Air Path>,<Number of Nodes>
! <Supply Air Path Node>,<Node Type>,<Node Count>,<Node Name>,<AirLoopHVAC Name>
#Nodes on Supply Air Path,2
   Supply Air Path Node,Inlet Node,1,OFFICE_OPEN_0_Z5_ZONEEQUIPMENTINLET,OFFICE_OPEN_0_Z5_AIRLOOP
   Supply Air Path Node,Outlet Node,2,OFFICE_OPEN_0_Z5_TERMINALINLET,OFFICE_OPEN_0_Z5_AIRLOOP
 Supply Air Path,6,OFFICE_PRIVATE_0_Z6,OFFICE_PRIVATE_0_Z6_AIRLOOP
   #Components on Supply Air Path,1
   Supply Air Path Component,1,AIRLOOPHVAC:ZONESPLITTER,OFFICE_PRIVATE_0_Z6_SUPPLYSPLITTER,OFFICE_PRIVATE_0_Z6_AIRLOOP
     #Outlet Nodes on Supply Air Path Component,1
     Supply Air Path Component Nodes,1,AIRLOOPHVAC:ZONESPLITTER,OFFICE_PRIVATE_0_Z6_SUPPLYSPLITTER,OFFICE_PRIVATE_0_Z6_ZONEEQUIPMENTINLET,OFFICE_PRIVATE_0_Z6_TERMINALINLET,OFFICE_PRIVATE_0_Z6_AIRLOOP
! <#Nodes on Supply Air Path>,<Number of Nodes>
! <Supply Air Path Node>,<Node Type>,<Node Count>,<Node Name>,<AirLoopHVAC Name>
#Nodes on Supply Air Path,2
   Supply Air Path Node,Inlet Node,1,OFFICE_PRIVATE_0_Z6_ZONEEQUIPMENTINLET,OFFICE_PRIVATE_0_Z6_AIRLOOP
   Supply Air Path Node,Outlet Node,2,OFFICE_PRIVATE_0_Z6_TERMINALINLET,OFFICE_PRIVATE_0_Z6_AIRLOOP
 Supply Air Path,7,STORAGE_0_Z7,STORAGE_0_Z7_AIRLOOP
   #Components on Supply Air Path,1
   Supply Air Path Component,1,AIRLOOPHVAC:ZONESPLITTER,STORAGE_0_Z7_SUPPLYSPLITTER,STORAGE_0_Z7_AIRLOOP
     #Outlet Nodes on Supply Air Path Component,1
     Supply Air Path Component Nodes,1,AIRLOOPHVAC:ZONESPLITTER,STORAGE_0_Z7_SUPPLYSPLITTER,STORAGE_0_Z7_ZONEEQUIPMENTINLET,STORAGE_0_Z7_TERMINALINLET,STORAGE_0_Z7_AIRLOOP
! <#Nodes on Supply Air Path>,<Number of Nodes>
! <Supply Air Path Node>,<Node Type>,<Node Count>,<Node Name>,<AirLoopHVAC Name>
#Nodes on Supply Air Path,2
   Supply Air Path Node,Inlet Node,1,STORAGE_0_Z7_ZONEEQUIPMENTINLET,STORAGE_0_Z7_AIRLOOP
   Supply Air Path Node,Outlet Node,2,STORAGE_0_Z7_TERMINALINLET,STORAGE_0_Z7_AIRLOOP
 Supply Air Path,8,LOBBY_1_Z8,LOBBY_1_Z8_AIRLOOP
   #Components on Supply Air Path,1
   Supply Air Path Component,1,AIRLOOPHVAC:ZONESPLITTER,LOBBY_1_Z8_SUPPLYSPLITTER,LOBBY_1_Z8_AIRLOOP
     #Outlet Nodes on Supply Air Path Component,1
     Supply Air Path Component Nodes,1,AIRLOOPHVAC:ZONESPLITTER,LOBBY_1_Z8_SUPPLYSPLITTER,LOBBY_1_Z8_ZONEEQUIPMENTINLET,LOBBY_1_Z8_TERMINALINLET,LOBBY_1_Z8_AIRLOOP
! <#Nodes on Supply Air Path>,<Number of Nodes>
! <Supply Air Path Node>,<Node Type>,<Node Count>,<Node Name>,<AirLoopHVAC Name>
#Nodes on Supply Air Path,2
   Supply Air Path Node,Inlet Node,1,LOBBY_1_Z8_ZONEEQUIPMENTINLET,LOBBY_1_Z8_AIRLOOP
   Supply Air Path Node,Outlet Node,2,LOBBY_1_Z8_TERMINALINLET,LOBBY_1_Z8_AIRLOOP
 Supply Air Path,9,CONFERENCE_1_Z9,CONFERENCE_1_Z9_AIRLOOP
   #Components on Supply Air Path,1
   Supply Air Path Component,1,AIRLOOPHVAC:ZONESPLITTER,CONFERENCE_1_Z9_SUPPLYSPLITTER,CONFERENCE_1_Z9_AIRLOOP
     #Outlet Nodes on Supply Air Path Component,1
     Supply Air Path Component Nodes,1,AIRLOOPHVAC:ZONESPLITTER,CONFERENCE_1_Z9_SUPPLYSPLITTER,CONFERENCE_1_Z9_ZONEEQUIPMENTINLET,CONFERENCE_1_Z9_TERMINALINLET,CONFERENCE_1_Z9_AIRLOOP
! <#Nodes on Supply Air Path>,<Number of Nodes>
! <Supply Air Path Node>,<Node Type>,<Node Count>,<Node Name>,<AirLoopHVAC Name>
#Nodes on Supply Air Path,2
   Supply Air Path Node,Inlet Node,1,CONFERENCE_1_Z9_ZONEEQUIPMENTINLET,CONFERENCE_1_Z9_AIRLOOP
   Supply Air Path Node,Outlet Node,2,CONFERENCE_1_Z9_TERMINALINLET,CONFERENCE_1_Z9_AIRLOOP
 Supply Air Path,10,BREAK_ROOM_1_Z10,BREAK_ROOM_1_Z10_AIRLOOP
   #Components on Supply Air Path,1
   Supply Air Path Component,1,AIRLOOPHVAC:ZONESPLITTER,BREAK_ROOM_1_Z10_SUPPLYSPLITTER,BREAK_ROOM_1_Z10_AIRLOOP
     #Outlet Nodes on Supply Air Path Component,1
     Supply Air Path Component Nodes,1,AIRLOOPHVAC:ZONESPLITTER,BREAK_ROOM_1_Z10_SUPPLYSPLITTER,BREAK_ROOM_1_Z10_ZONEEQUIPMENTINLET,BREAK_ROOM_1_Z10_TERMINALINLET,BREAK_ROOM_1_Z10_AIRLOOP
! <#Nodes on Supply Air Path>,<Number of Nodes>
! <Supply Air Path Node>,<Node Type>,<Node Count>,<Node Name>,<AirLoopHVAC Name>
#Nodes on Supply Air Path,2
   Supply Air Path Node,Inlet Node,1,BREAK_ROOM_1_Z10_ZONEEQUIPMENTINLET,BREAK_ROOM_1_Z10_AIRLOOP
   Supply Air Path Node,Outlet Node,2,BREAK_ROOM_1_Z10_TERMINALINLET,BREAK_ROOM_1_Z10_AIRLOOP
 Supply Air Path,11,MECHANICAL_1_Z11,MECHANICAL_1_Z11_AIRLOOP
   #Components on Supply Air Path,1
   Supply Air Path Component,1,AIRLOOPHVAC:ZONESPLITTER,MECHANICAL_1_Z11_SUPPLYSPLITTER,MECHANICAL_1_Z11_AIRLOOP
     #Outlet Nodes on Supply Air Path Component,1
     Supply Air Path Component Nodes,1,AIRLOOPHVAC:ZONESPLITTER,MECHANICAL_1_Z11_SUPPLYSPLITTER,MECHANICAL_1_Z11_ZONEEQUIPMENTINLET,MECHANICAL_1_Z11_TERMINALINLET,MECHANICAL_1_Z11_AIRLOOP
! <#Nodes on Supply Air Path>,<Number of Nodes>
! <Supply Air Path Node>,<Node Type>,<Node Count>,<Node Name>,<AirLoopHVAC Name>
#Nodes on Supply Air Path,2
   Supply Air Path Node,Inlet Node,1,MECHANICAL_1_Z11_ZONEEQUIPMENTINLET,MECHANICAL_1_Z11_AIRLOOP
   Supply Air Path Node,Outlet Node,2,MECHANICAL_1_Z11_TERMINALINLET,MECHANICAL_1_Z11_AIRLOOP
 Supply Air Path,12,OFFICE_OPEN_1_Z12,OFFICE_OPEN_1_Z12_AIRLOOP
   #Components on Supply Air Path,1
   Supply Air Path Component,1,AIRLOOPHVAC:ZONESPLITTER,OFFICE_OPEN_1_Z12_SUPPLYSPLITTER,OFFICE_OPEN_1_Z12_AIRLOOP
     #Outlet Nodes on Supply Air Path Component,1
     Supply Air Path Component Nodes,1,AIRLOOPHVAC:ZONESPLITTER,OFFICE_OPEN_1_Z12_SUPPLYSPLITTER,OFFICE_OPEN_1_Z12_ZONEEQUIPMENTINLET,OFFICE_OPEN_1_Z12_TERMINALINLET,OFFICE_OPEN_1_Z12_AIRLOOP
! <#Nodes on Supply Air Path>,<Number of Nodes>
! <Supply Air Path Node>,<Node Type>,<Node Count>,<Node Name>,<AirLoopHVAC Name>
#Nodes on Supply Air Path,2
   Supply Air Path Node,Inlet Node,1,OFFICE_OPEN_1_Z12_ZONEEQUIPMENTINLET,OFFICE_OPEN_1_Z12_AIRLOOP
   Supply Air Path Node,Outlet Node,2,OFFICE_OPEN_1_Z12_TERMINALINLET,OFFICE_OPEN_1_Z12_AIRLOOP
 Supply Air Path,13,OFFICE_PRIVATE_1_Z13,OFFICE_PRIVATE_1_Z13_AIRLOOP
   #Components on Supply Air Path,1
   Supply Air Path Component,1,AIRLOOPHVAC:ZONESPLITTER,OFFICE_PRIVATE_1_Z13_SUPPLYSPLITTER,OFFICE_PRIVATE_1_Z13_AIRLOOP
     #Outlet Nodes on Supply Air Path Component,1
     Supply Air Path Component Nodes,1,AIRLOOPHVAC:ZONESPLITTER,OFFICE_PRIVATE_1_Z13_SUPPLYSPLITTER,OFFICE_PRIVATE_1_Z13_ZONEEQUIPMENTINLET,OFFICE_PRIVATE_1_Z13_TERMINALINLET,OFFICE_PRIVATE_1_Z13_AIRLOOP
! <#Nodes on Supply Air Path>,<Number of Nodes>
! <Supply Air Path Node>,<Node Type>,<Node Count>,<Node Name>,<AirLoopHVAC Name>
#Nodes on Supply Air Path,2
   Supply Air Path Node,Inlet Node,1,OFFICE_PRIVATE_1_Z13_ZONEEQUIPMENTINLET,OFFICE_PRIVATE_1_Z13_AIRLOOP
   Supply Air Path Node,Outlet Node,2,OFFICE_PRIVATE_1_Z13_TERMINALINLET,OFFICE_PRIVATE_1_Z13_AIRLOOP
 Supply Air Path,14,STORAGE_1_Z14,STORAGE_1_Z14_AIRLOOP
   #Components on Supply Air Path,1
   Supply Air Path Component,1,AIRLOOPHVAC:ZONESPLITTER,STORAGE_1_Z14_SUPPLYSPLITTER,STORAGE_1_Z14_AIRLOOP
     #Outlet Nodes on Supply Air Path Component,1
     Supply Air Path Component Nodes,1,AIRLOOPHVAC:ZONESPLITTER,STORAGE_1_Z14_SUPPLYSPLITTER,STORAGE_1_Z14_ZONEEQUIPMENTINLET,STORAGE_1_Z14_TERMINALINLET,STORAGE_1_Z14_AIRLOOP
! <#Nodes on Supply Air Path>,<Number of Nodes>
! <Supply Air Path Node>,<Node Type>,<Node Count>,<Node Name>,<AirLoopHVAC Name>
#Nodes on Supply Air Path,2
   Supply Air Path Node,Inlet Node,1,STORAGE_1_Z14_ZONEEQUIPMENTINLET,STORAGE_1_Z14_AIRLOOP
   Supply Air Path Node,Outlet Node,2,STORAGE_1_Z14_TERMINALINLET,STORAGE_1_Z14_AIRLOOP
 Supply Air Path,15,LOBBY_2_Z15,LOBBY_2_Z15_AIRLOOP
   #Components on Supply Air Path,1
   Supply Air Path Component,1,AIRLOOPHVAC:ZONESPLITTER,LOBBY_2_Z15_SUPPLYSPLITTER,LOBBY_2_Z15_AIRLOOP
     #Outlet Nodes on Supply Air Path Component,1
     Supply Air Path Component Nodes,1,AIRLOOPHVAC:ZONESPLITTER,LOBBY_2_Z15_SUPPLYSPLITTER,LOBBY_2_Z15_ZONEEQUIPMENTINLET,LOBBY_2_Z15_TERMINALINLET,LOBBY_2_Z15_AIRLOOP
! <#Nodes on Supply Air Path>,<Number of Nodes>
! <Supply Air Path Node>,<Node Type>,<Node Count>,<Node Name>,<AirLoopHVAC Name>
#Nodes on Supply Air Path,2
   Supply Air Path Node,Inlet Node,1,LOBBY_2_Z15_ZONEEQUIPMENTINLET,LOBBY_2_Z15_AIRLOOP
   Supply Air Path Node,Outlet Node,2,LOBBY_2_Z15_TERMINALINLET,LOBBY_2_Z15_AIRLOOP
 Supply Air Path,16,CONFERENCE_2_Z16,CONFERENCE_2_Z16_AIRLOOP
   #Components on Supply Air Path,1
   Supply Air Path Component,1,AIRLOOPHVAC:ZONESPLITTER,CONFERENCE_2_Z16_SUPPLYSPLITTER,CONFERENCE_2_Z16_AIRLOOP
     #Outlet Nodes on Supply Air Path Component,1
     Supply Air Path Component Nodes,1,AIRLOOPHVAC:ZONESPLITTER,CONFERENCE_2_Z16_SUPPLYSPLITTER,CONFERENCE_2_Z16_ZONEEQUIPMENTINLET,CONFERENCE_2_Z16_TERMINALINLET,CONFERENCE_2_Z16_AIRLOOP
! <#Nodes on Supply Air Path>,<Number of Nodes>
! <Supply Air Path Node>,<Node Type>,<Node Count>,<Node Name>,<AirLoopHVAC Name>
#Nodes on Supply Air Path,2
   Supply Air Path Node,Inlet Node,1,CONFERENCE_2_Z16_ZONEEQUIPMENTINLET,CONFERENCE_2_Z16_AIRLOOP
   Supply Air Path Node,Outlet Node,2,CONFERENCE_2_Z16_TERMINALINLET,CONFERENCE_2_Z16_AIRLOOP
 Supply Air Path,17,MECHANICAL_2_Z17,MECHANICAL_2_Z17_AIRLOOP
   #Components on Supply Air Path,1
   Supply Air Path Component,1,AIRLOOPHVAC:ZONESPLITTER,MECHANICAL_2_Z17_SUPPLYSPLITTER,MECHANICAL_2_Z17_AIRLOOP
     #Outlet Nodes on Supply Air Path Component,1
     Supply Air Path Component Nodes,1,AIRLOOPHVAC:ZONESPLITTER,MECHANICAL_2_Z17_SUPPLYSPLITTER,MECHANICAL_2_Z17_ZONEEQUIPMENTINLET,MECHANICAL_2_Z17_TERMINALINLET,MECHANICAL_2_Z17_AIRLOOP
! <#Nodes on Supply Air Path>,<Number of Nodes>
! <Supply Air Path Node>,<Node Type>,<Node Count>,<Node Name>,<AirLoopHVAC Name>
#Nodes on Supply Air Path,2
   Supply Air Path Node,Inlet Node,1,MECHANICAL_2_Z17_ZONEEQUIPMENTINLET,MECHANICAL_2_Z17_AIRLOOP
   Supply Air Path Node,Outlet Node,2,MECHANICAL_2_Z17_TERMINALINLET,MECHANICAL_2_Z17_AIRLOOP
 Supply Air Path,18,OFFICE_OPEN_2_Z18,OFFICE_OPEN_2_Z18_AIRLOOP
   #Components on Supply Air Path,1
   Supply Air Path Component,1,AIRLOOPHVAC:ZONESPLITTER,OFFICE_OPEN_2_Z18_SUPPLYSPLITTER,OFFICE_OPEN_2_Z18_AIRLOOP
     #Outlet Nodes on Supply Air Path Component,1
     Supply Air Path Component Nodes,1,AIRLOOPHVAC:ZONESPLITTER,OFFICE_OPEN_2_Z18_SUPPLYSPLITTER,OFFICE_OPEN_2_Z18_ZONEEQUIPMENTINLET,OFFICE_OPEN_2_Z18_TERMINALINLET,OFFICE_OPEN_2_Z18_AIRLOOP
! <#Nodes on Supply Air Path>,<Number of Nodes>
! <Supply Air Path Node>,<Node Type>,<Node Count>,<Node Name>,<AirLoopHVAC Name>
#Nodes on Supply Air Path,2
   Supply Air Path Node,Inlet Node,1,OFFICE_OPEN_2_Z18_ZONEEQUIPMENTINLET,OFFICE_OPEN_2_Z18_AIRLOOP
   Supply Air Path Node,Outlet Node,2,OFFICE_OPEN_2_Z18_TERMINALINLET,OFFICE_OPEN_2_Z18_AIRLOOP
 Supply Air Path,19,OFFICE_PRIVATE_2_Z19,OFFICE_PRIVATE_2_Z19_AIRLOOP
   #Components on Supply Air Path,1
   Supply Air Path Component,1,AIRLOOPHVAC:ZONESPLITTER,OFFICE_PRIVATE_2_Z19_SUPPLYSPLITTER,OFFICE_PRIVATE_2_Z19_AIRLOOP
     #Outlet Nodes on Supply Air Path Component,1
     Supply Air Path Component Nodes,1,AIRLOOPHVAC:ZONESPLITTER,OFFICE_PRIVATE_2_Z19_SUPPLYSPLITTER,OFFICE_PRIVATE_2_Z19_ZONEEQUIPMENTINLET,OFFICE_PRIVATE_2_Z19_TERMINALINLET,OFFICE_PRIVATE_2_Z19_AIRLOOP
! <#Nodes on Supply Air Path>,<Number of Nodes>
! <Supply Air Path Node>,<Node Type>,<Node Count>,<Node Name>,<AirLoopHVAC Name>
#Nodes on Supply Air Path,2
   Supply Air Path Node,Inlet Node,1,OFFICE_PRIVATE_2_Z19_ZONEEQUIPMENTINLET,OFFICE_PRIVATE_2_Z19_AIRLOOP
   Supply Air Path Node,Outlet Node,2,OFFICE_PRIVATE_2_Z19_TERMINALINLET,OFFICE_PRIVATE_2_Z19_AIRLOOP
 Supply Air Path,20,STORAGE_2_Z20,STORAGE_2_Z20_AIRLOOP
   #Components on Supply Air Path,1
   Supply Air Path Component,1,AIRLOOPHVAC:ZONESPLITTER,STORAGE_2_Z20_SUPPLYSPLITTER,STORAGE_2_Z20_AIRLOOP
     #Outlet Nodes on Supply Air Path Component,1
     Supply Air Path Component Nodes,1,AIRLOOPHVAC:ZONESPLITTER,STORAGE_2_Z20_SUPPLYSPLITTER,STORAGE_2_Z20_ZONEEQUIPMENTINLET,STORAGE_2_Z20_TERMINALINLET,STORAGE_2_Z20_AIRLOOP
! <#Nodes on Supply Air Path>,<Number of Nodes>
! <Supply Air Path Node>,<Node Type>,<Node Count>,<Node Name>,<AirLoopHVAC Name>
#Nodes on Supply Air Path,2
   Supply Air Path Node,Inlet Node,1,STORAGE_2_Z20_ZONEEQUIPMENTINLET,STORAGE_2_Z20_AIRLOOP
   Supply Air Path Node,Outlet Node,2,STORAGE_2_Z20_TERMINALINLET,STORAGE_2_Z20_AIRLOOP
 Supply Air Path,21,LOBBY_3_Z21,LOBBY_3_Z21_AIRLOOP
   #Components on Supply Air Path,1
   Supply Air Path Component,1,AIRLOOPHVAC:ZONESPLITTER,LOBBY_3_Z21_SUPPLYSPLITTER,LOBBY_3_Z21_AIRLOOP
     #Outlet Nodes on Supply Air Path Component,1
     Supply Air Path Component Nodes,1,AIRLOOPHVAC:ZONESPLITTER,LOBBY_3_Z21_SUPPLYSPLITTER,LOBBY_3_Z21_ZONEEQUIPMENTINLET,LOBBY_3_Z21_TERMINALINLET,LOBBY_3_Z21_AIRLOOP
! <#Nodes on Supply Air Path>,<Number of Nodes>
! <Supply Air Path Node>,<Node Type>,<Node Count>,<Node Name>,<AirLoopHVAC Name>
#Nodes on Supply Air Path,2
   Supply Air Path Node,Inlet Node,1,LOBBY_3_Z21_ZONEEQUIPMENTINLET,LOBBY_3_Z21_AIRLOOP
   Supply Air Path Node,Outlet Node,2,LOBBY_3_Z21_TERMINALINLET,LOBBY_3_Z21_AIRLOOP
 Supply Air Path,22,CONFERENCE_3_Z22,CONFERENCE_3_Z22_AIRLOOP
   #Components on Supply Air Path,1
   Supply Air Path Component,1,AIRLOOPHVAC:ZONESPLITTER,CONFERENCE_3_Z22_SUPPLYSPLITTER,CONFERENCE_3_Z22_AIRLOOP
     #Outlet Nodes on Supply Air Path Component,1
     Supply Air Path Component Nodes,1,AIRLOOPHVAC:ZONESPLITTER,CONFERENCE_3_Z22_SUPPLYSPLITTER,CONFERENCE_3_Z22_ZONEEQUIPMENTINLET,CONFERENCE_3_Z22_TERMINALINLET,CONFERENCE_3_Z22_AIRLOOP
! <#Nodes on Supply Air Path>,<Number of Nodes>
! <Supply Air Path Node>,<Node Type>,<Node Count>,<Node Name>,<AirLoopHVAC Name>
#Nodes on Supply Air Path,2
   Supply Air Path Node,Inlet Node,1,CONFERENCE_3_Z22_ZONEEQUIPMENTINLET,CONFERENCE_3_Z22_AIRLOOP
   Supply Air Path Node,Outlet Node,2,CONFERENCE_3_Z22_TERMINALINLET,CONFERENCE_3_Z22_AIRLOOP
 Supply Air Path,23,BREAK_ROOM_3_Z23,BREAK_ROOM_3_Z23_AIRLOOP
   #Components on Supply Air Path,1
   Supply Air Path Component,1,AIRLOOPHVAC:ZONESPLITTER,BREAK_ROOM_3_Z23_SUPPLYSPLITTER,BREAK_ROOM_3_Z23_AIRLOOP
     #Outlet Nodes on Supply Air Path Component,1
     Supply Air Path Component Nodes,1,AIRLOOPHVAC:ZONESPLITTER,BREAK_ROOM_3_Z23_SUPPLYSPLITTER,BREAK_ROOM_3_Z23_ZONEEQUIPMENTINLET,BREAK_ROOM_3_Z23_TERMINALINLET,BREAK_ROOM_3_Z23_AIRLOOP
! <#Nodes on Supply Air Path>,<Number of Nodes>
! <Supply Air Path Node>,<Node Type>,<Node Count>,<Node Name>,<AirLoopHVAC Name>
#Nodes on Supply Air Path,2
   Supply Air Path Node,Inlet Node,1,BREAK_ROOM_3_Z23_ZONEEQUIPMENTINLET,BREAK_ROOM_3_Z23_AIRLOOP
   Supply Air Path Node,Outlet Node,2,BREAK_ROOM_3_Z23_TERMINALINLET,BREAK_ROOM_3_Z23_AIRLOOP
 Supply Air Path,24,MECHANICAL_3_Z24,MECHANICAL_3_Z24_AIRLOOP
   #Components on Supply Air Path,1
   Supply Air Path Component,1,AIRLOOPHVAC:ZONESPLITTER,MECHANICAL_3_Z24_SUPPLYSPLITTER,MECHANICAL_3_Z24_AIRLOOP
     #Outlet Nodes on Supply Air Path Component,1
     Supply Air Path Component Nodes,1,AIRLOOPHVAC:ZONESPLITTER,MECHANICAL_3_Z24_SUPPLYSPLITTER,MECHANICAL_3_Z24_ZONEEQUIPMENTINLET,MECHANICAL_3_Z24_TERMINALINLET,MECHANICAL_3_Z24_AIRLOOP
! <#Nodes on Supply Air Path>,<Number of Nodes>
! <Supply Air Path Node>,<Node Type>,<Node Count>,<Node Name>,<AirLoopHVAC Name>
#Nodes on Supply Air Path,2
   Supply Air Path Node,Inlet Node,1,MECHANICAL_3_Z24_ZONEEQUIPMENTINLET,MECHANICAL_3_Z24_AIRLOOP
   Supply Air Path Node,Outlet Node,2,MECHANICAL_3_Z24_TERMINALINLET,MECHANICAL_3_Z24_AIRLOOP
 Supply Air Path,25,OFFICE_OPEN_3_Z25,OFFICE_OPEN_3_Z25_AIRLOOP
   #Components on Supply Air Path,1
   Supply Air Path Component,1,AIRLOOPHVAC:ZONESPLITTER,OFFICE_OPEN_3_Z25_SUPPLYSPLITTER,OFFICE_OPEN_3_Z25_AIRLOOP
     #Outlet Nodes on Supply Air Path Component,1
     Supply Air Path Component Nodes,1,AIRLOOPHVAC:ZONESPLITTER,OFFICE_OPEN_3_Z25_SUPPLYSPLITTER,OFFICE_OPEN_3_Z25_ZONEEQUIPMENTINLET,OFFICE_OPEN_3_Z25_TERMINALINLET,OFFICE_OPEN_3_Z25_AIRLOOP
! <#Nodes on Supply Air Path>,<Number of Nodes>
! <Supply Air Path Node>,<Node Type>,<Node Count>,<Node Name>,<AirLoopHVAC Name>
#Nodes on Supply Air Path,2
   Supply Air Path Node,Inlet Node,1,OFFICE_OPEN_3_Z25_ZONEEQUIPMENTINLET,OFFICE_OPEN_3_Z25_AIRLOOP
   Supply Air Path Node,Outlet Node,2,OFFICE_OPEN_3_Z25_TERMINALINLET,OFFICE_OPEN_3_Z25_AIRLOOP
 Supply Air Path,26,OFFICE_PRIVATE_3_Z26,OFFICE_PRIVATE_3_Z26_AIRLOOP
   #Components on Supply Air Path,1
   Supply Air Path Component,1,AIRLOOPHVAC:ZONESPLITTER,OFFICE_PRIVATE_3_Z26_SUPPLYSPLITTER,OFFICE_PRIVATE_3_Z26_AIRLOOP
     #Outlet Nodes on Supply Air Path Component,1
     Supply Air Path Component Nodes,1,AIRLOOPHVAC:ZONESPLITTER,OFFICE_PRIVATE_3_Z26_SUPPLYSPLITTER,OFFICE_PRIVATE_3_Z26_ZONEEQUIPMENTINLET,OFFICE_PRIVATE_3_Z26_TERMINALINLET,OFFICE_PRIVATE_3_Z26_AIRLOOP
! <#Nodes on Supply Air Path>,<Number of Nodes>
! <Supply Air Path Node>,<Node Type>,<Node Count>,<Node Name>,<AirLoopHVAC Name>
#Nodes on Supply Air Path,2
   Supply Air Path Node,Inlet Node,1,OFFICE_PRIVATE_3_Z26_ZONEEQUIPMENTINLET,OFFICE_PRIVATE_3_Z26_AIRLOOP
   Supply Air Path Node,Outlet Node,2,OFFICE_PRIVATE_3_Z26_TERMINALINLET,OFFICE_PRIVATE_3_Z26_AIRLOOP
 Supply Air Path,27,STORAGE_3_Z27,STORAGE_3_Z27_AIRLOOP
   #Components on Supply Air Path,1
   Supply Air Path Component,1,AIRLOOPHVAC:ZONESPLITTER,STORAGE_3_Z27_SUPPLYSPLITTER,STORAGE_3_Z27_AIRLOOP
     #Outlet Nodes on Supply Air Path Component,1
     Supply Air Path Component Nodes,1,AIRLOOPHVAC:ZONESPLITTER,STORAGE_3_Z27_SUPPLYSPLITTER,STORAGE_3_Z27_ZONEEQUIPMENTINLET,STORAGE_3_Z27_TERMINALINLET,STORAGE_3_Z27_AIRLOOP
! <#Nodes on Supply Air Path>,<Number of Nodes>
! <Supply Air Path Node>,<Node Type>,<Node Count>,<Node Name>,<AirLoopHVAC Name>
#Nodes on Supply Air Path,2
   Supply Air Path Node,Inlet Node,1,STORAGE_3_Z27_ZONEEQUIPMENTINLET,STORAGE_3_Z27_AIRLOOP
   Supply Air Path Node,Outlet Node,2,STORAGE_3_Z27_TERMINALINLET,STORAGE_3_Z27_AIRLOOP
 Supply Air Path,28,LOBBY_4_Z28,LOBBY_4_Z28_AIRLOOP
   #Components on Supply Air Path,1
   Supply Air Path Component,1,AIRLOOPHVAC:ZONESPLITTER,LOBBY_4_Z28_SUPPLYSPLITTER,LOBBY_4_Z28_AIRLOOP
     #Outlet Nodes on Supply Air Path Component,1
     Supply Air Path Component Nodes,1,AIRLOOPHVAC:ZONESPLITTER,LOBBY_4_Z28_SUPPLYSPLITTER,LOBBY_4_Z28_ZONEEQUIPMENTINLET,LOBBY_4_Z28_TERMINALINLET,LOBBY_4_Z28_AIRLOOP
! <#Nodes on Supply Air Path>,<Number of Nodes>
! <Supply Air Path Node>,<Node Type>,<Node Count>,<Node Name>,<AirLoopHVAC Name>
#Nodes on Supply Air Path,2
   Supply Air Path Node,Inlet Node,1,LOBBY_4_Z28_ZONEEQUIPMENTINLET,LOBBY_4_Z28_AIRLOOP
   Supply Air Path Node,Outlet Node,2,LOBBY_4_Z28_TERMINALINLET,LOBBY_4_Z28_AIRLOOP
 Supply Air Path,29,CONFERENCE_4_Z29,CONFERENCE_4_Z29_AIRLOOP
   #Components on Supply Air Path,1
   Supply Air Path Component,1,AIRLOOPHVAC:ZONESPLITTER,CONFERENCE_4_Z29_SUPPLYSPLITTER,CONFERENCE_4_Z29_AIRLOOP
     #Outlet Nodes on Supply Air Path Component,1
     Supply Air Path Component Nodes,1,AIRLOOPHVAC:ZONESPLITTER,CONFERENCE_4_Z29_SUPPLYSPLITTER,CONFERENCE_4_Z29_ZONEEQUIPMENTINLET,CONFERENCE_4_Z29_TERMINALINLET,CONFERENCE_4_Z29_AIRLOOP
! <#Nodes on Supply Air Path>,<Number of Nodes>
! <Supply Air Path Node>,<Node Type>,<Node Count>,<Node Name>,<AirLoopHVAC Name>
#Nodes on Supply Air Path,2
   Supply Air Path Node,Inlet Node,1,CONFERENCE_4_Z29_ZONEEQUIPMENTINLET,CONFERENCE_4_Z29_AIRLOOP
   Supply Air Path Node,Outlet Node,2,CONFERENCE_4_Z29_TERMINALINLET,CONFERENCE_4_Z29_AIRLOOP
 Supply Air Path,30,BREAK_ROOM_4_Z30,BREAK_ROOM_4_Z30_AIRLOOP
   #Components on Supply Air Path,1
   Supply Air Path Component,1,AIRLOOPHVAC:ZONESPLITTER,BREAK_ROOM_4_Z30_SUPPLYSPLITTER,BREAK_ROOM_4_Z30_AIRLOOP
     #Outlet Nodes on Supply Air Path Component,1
     Supply Air Path Component Nodes,1,AIRLOOPHVAC:ZONESPLITTER,BREAK_ROOM_4_Z30_SUPPLYSPLITTER,BREAK_ROOM_4_Z30_ZONEEQUIPMENTINLET,BREAK_ROOM_4_Z30_TERMINALINLET,BREAK_ROOM_4_Z30_AIRLOOP
! <#Nodes on Supply Air Path>,<Number of Nodes>
! <Supply Air Path Node>,<Node Type>,<Node Count>,<Node Name>,<AirLoopHVAC Name>
#Nodes on Supply Air Path,2
   Supply Air Path Node,Inlet Node,1,BREAK_ROOM_4_Z30_ZONEEQUIPMENTINLET,BREAK_ROOM_4_Z30_AIRLOOP
   Supply Air Path Node,Outlet Node,2,BREAK_ROOM_4_Z30_TERMINALINLET,BREAK_ROOM_4_Z30_AIRLOOP
 Supply Air Path,31,MECHANICAL_4_Z31,MECHANICAL_4_Z31_AIRLOOP
   #Components on Supply Air Path,1
   Supply Air Path Component,1,AIRLOOPHVAC:ZONESPLITTER,MECHANICAL_4_Z31_SUPPLYSPLITTER,MECHANICAL_4_Z31_AIRLOOP
     #Outlet Nodes on Supply Air Path Component,1
     Supply Air Path Component Nodes,1,AIRLOOPHVAC:ZONESPLITTER,MECHANICAL_4_Z31_SUPPLYSPLITTER,MECHANICAL_4_Z31_ZONEEQUIPMENTINLET,MECHANICAL_4_Z31_TERMINALINLET,MECHANICAL_4_Z31_AIRLOOP
! <#Nodes on Supply Air Path>,<Number of Nodes>
! <Supply Air Path Node>,<Node Type>,<Node Count>,<Node Name>,<AirLoopHVAC Name>
#Nodes on Supply Air Path,2
   Supply Air Path Node,Inlet Node,1,MECHANICAL_4_Z31_ZONEEQUIPMENTINLET,MECHANICAL_4_Z31_AIRLOOP
   Supply Air Path Node,Outlet Node,2,MECHANICAL_4_Z31_TERMINALINLET,MECHANICAL_4_Z31_AIRLOOP
 Supply Air Path,32,OFFICE_OPEN_4_Z32,OFFICE_OPEN_4_Z32_AIRLOOP
   #Components on Supply Air Path,1
   Supply Air Path Component,1,AIRLOOPHVAC:ZONESPLITTER,OFFICE_OPEN_4_Z32_SUPPLYSPLITTER,OFFICE_OPEN_4_Z32_AIRLOOP
     #Outlet Nodes on Supply Air Path Component,1
     Supply Air Path Component Nodes,1,AIRLOOPHVAC:ZONESPLITTER,OFFICE_OPEN_4_Z32_SUPPLYSPLITTER,OFFICE_OPEN_4_Z32_ZONEEQUIPMENTINLET,OFFICE_OPEN_4_Z32_TERMINALINLET,OFFICE_OPEN_4_Z32_AIRLOOP
! <#Nodes on Supply Air Path>,<Number of Nodes>
! <Supply Air Path Node>,<Node Type>,<Node Count>,<Node Name>,<AirLoopHVAC Name>
#Nodes on Supply Air Path,2
   Supply Air Path Node,Inlet Node,1,OFFICE_OPEN_4_Z32_ZONEEQUIPMENTINLET,OFFICE_OPEN_4_Z32_AIRLOOP
   Supply Air Path Node,Outlet Node,2,OFFICE_OPEN_4_Z32_TERMINALINLET,OFFICE_OPEN_4_Z32_AIRLOOP
 Supply Air Path,33,OFFICE_PRIVATE_4_Z33,OFFICE_PRIVATE_4_Z33_AIRLOOP
   #Components on Supply Air Path,1
   Supply Air Path Component,1,AIRLOOPHVAC:ZONESPLITTER,OFFICE_PRIVATE_4_Z33_SUPPLYSPLITTER,OFFICE_PRIVATE_4_Z33_AIRLOOP
     #Outlet Nodes on Supply Air Path Component,1
     Supply Air Path Component Nodes,1,AIRLOOPHVAC:ZONESPLITTER,OFFICE_PRIVATE_4_Z33_SUPPLYSPLITTER,OFFICE_PRIVATE_4_Z33_ZONEEQUIPMENTINLET,OFFICE_PRIVATE_4_Z33_TERMINALINLET,OFFICE_PRIVATE_4_Z33_AIRLOOP
! <#Nodes on Supply Air Path>,<Number of Nodes>
! <Supply Air Path Node>,<Node Type>,<Node Count>,<Node Name>,<AirLoopHVAC Name>
#Nodes on Supply Air Path,2
   Supply Air Path Node,Inlet Node,1,OFFICE_PRIVATE_4_Z33_ZONEEQUIPMENTINLET,OFFICE_PRIVATE_4_Z33_AIRLOOP
   Supply Air Path Node,Outlet Node,2,OFFICE_PRIVATE_4_Z33_TERMINALINLET,OFFICE_PRIVATE_4_Z33_AIRLOOP
 Supply Air Path,34,STORAGE_4_Z34,STORAGE_4_Z34_AIRLOOP
   #Components on Supply Air Path,1
   Supply Air Path Component,1,AIRLOOPHVAC:ZONESPLITTER,STORAGE_4_Z34_SUPPLYSPLITTER,STORAGE_4_Z34_AIRLOOP
     #Outlet Nodes on Supply Air Path Component,1
     Supply Air Path Component Nodes,1,AIRLOOPHVAC:ZONESPLITTER,STORAGE_4_Z34_SUPPLYSPLITTER,STORAGE_4_Z34_ZONEEQUIPMENTINLET,STORAGE_4_Z34_TERMINALINLET,STORAGE_4_Z34_AIRLOOP
! <#Nodes on Supply Air Path>,<Number of Nodes>
! <Supply Air Path Node>,<Node Type>,<Node Count>,<Node Name>,<AirLoopHVAC Name>
#Nodes on Supply Air Path,2
   Supply Air Path Node,Inlet Node,1,STORAGE_4_Z34_ZONEEQUIPMENTINLET,STORAGE_4_Z34_AIRLOOP
   Supply Air Path Node,Outlet Node,2,STORAGE_4_Z34_TERMINALINLET,STORAGE_4_Z34_AIRLOOP
 Supply Air Path,35,LOBBY_5_Z35,LOBBY_5_Z35_AIRLOOP
   #Components on Supply Air Path,1
   Supply Air Path Component,1,AIRLOOPHVAC:ZONESPLITTER,LOBBY_5_Z35_SUPPLYSPLITTER,LOBBY_5_Z35_AIRLOOP
     #Outlet Nodes on Supply Air Path Component,1
     Supply Air Path Component Nodes,1,AIRLOOPHVAC:ZONESPLITTER,LOBBY_5_Z35_SUPPLYSPLITTER,LOBBY_5_Z35_ZONEEQUIPMENTINLET,LOBBY_5_Z35_TERMINALINLET,LOBBY_5_Z35_AIRLOOP
[...]
 Non-Parent Node Connection,MECHANICAL_7_Z51_HEATC-FANNODE,FAN:VARIABLEVOLUME,MECHANICAL_7_Z51_SUPPLYFAN,Inlet,1
 Non-Parent Node Connection,MECHANICAL_7_Z51_SUPPLYEQUIPMENTOUTLETNODE,FAN:VARIABLEVOLUME,MECHANICAL_7_Z51_SUPPLYFAN,Outlet,1
 Non-Parent Node Connection,OFFICE_OPEN_7_Z52_HEATC-FANNODE,FAN:VARIABLEVOLUME,OFFICE_OPEN_7_Z52_SUPPLYFAN,Inlet,1
 Non-Parent Node Connection,OFFICE_OPEN_7_Z52_SUPPLYEQUIPMENTOUTLETNODE,FAN:VARIABLEVOLUME,OFFICE_OPEN_7_Z52_SUPPLYFAN,Outlet,1
 Non-Parent Node Connection,OFFICE_PRIVATE_7_Z53_HEATC-FANNODE,FAN:VARIABLEVOLUME,OFFICE_PRIVATE_7_Z53_SUPPLYFAN,Inlet,1
 Non-Parent Node Connection,OFFICE_PRIVATE_7_Z53_SUPPLYEQUIPMENTOUTLETNODE,FAN:VARIABLEVOLUME,OFFICE_PRIVATE_7_Z53_SUPPLYFAN,Outlet,1
 Non-Parent Node Connection,STORAGE_7_Z54_HEATC-FANNODE,FAN:VARIABLEVOLUME,STORAGE_7_Z54_SUPPLYFAN,Inlet,1
 Non-Parent Node Connection,STORAGE_7_Z54_SUPPLYEQUIPMENTOUTLETNODE,FAN:VARIABLEVOLUME,STORAGE_7_Z54_SUPPLYFAN,Outlet,1
 Non-Parent Node Connection,BREAK_ROOM_8_Z55_HEATC-FANNODE,FAN:VARIABLEVOLUME,BREAK_ROOM_8_Z55_SUPPLYFAN,Inlet,1
 Non-Parent Node Connection,BREAK_ROOM_8_Z55_SUPPLYEQUIPMENTOUTLETNODE,FAN:VARIABLEVOLUME,BREAK_ROOM_8_Z55_SUPPLYFAN,Outlet,1
 Non-Parent Node Connection,MECHANICAL_8_Z56_HEATC-FANNODE,FAN:VARIABLEVOLUME,MECHANICAL_8_Z56_SUPPLYFAN,Inlet,1
 Non-Parent Node Connection,MECHANICAL_8_Z56_SUPPLYEQUIPMENTOUTLETNODE,FAN:VARIABLEVOLUME,MECHANICAL_8_Z56_SUPPLYFAN,Outlet,1
 Non-Parent Node Connection,OFFICE_OPEN_8_Z57_HEATC-FANNODE,FAN:VARIABLEVOLUME,OFFICE_OPEN_8_Z57_SUPPLYFAN,Inlet,1
 Non-Parent Node Connection,OFFICE_OPEN_8_Z57_SUPPLYEQUIPMENTOUTLETNODE,FAN:VARIABLEVOLUME,OFFICE_OPEN_8_Z57_SUPPLYFAN,Outlet,1
 Non-Parent Node Connection,OFFICE_PRIVATE_8_Z58_HEATC-FANNODE,FAN:VARIABLEVOLUME,OFFICE_PRIVATE_8_Z58_SUPPLYFAN,Inlet,1
 Non-Parent Node Connection,OFFICE_PRIVATE_8_Z58_SUPPLYEQUIPMENTOUTLETNODE,FAN:VARIABLEVOLUME,OFFICE_PRIVATE_8_Z58_SUPPLYFAN,Outlet,1
 Non-Parent Node Connection,STORAGE_8_Z59_HEATC-FANNODE,FAN:VARIABLEVOLUME,STORAGE_8_Z59_SUPPLYFAN,Inlet,1
 Non-Parent Node Connection,STORAGE_8_Z59_SUPPLYEQUIPMENTOUTLETNODE,FAN:VARIABLEVOLUME,STORAGE_8_Z59_SUPPLYFAN,Outlet,1
 Non-Parent Node Connection,LOBBY_9_Z60_HEATC-FANNODE,FAN:VARIABLEVOLUME,LOBBY_9_Z60_SUPPLYFAN,Inlet,1
 Non-Parent Node Connection,LOBBY_9_Z60_SUPPLYEQUIPMENTOUTLETNODE,FAN:VARIABLEVOLUME,LOBBY_9_Z60_SUPPLYFAN,Outlet,1
 Non-Parent Node Connection,BREAK_ROOM_9_Z61_HEATC-FANNODE,FAN:VARIABLEVOLUME,BREAK_ROOM_9_Z61_SUPPLYFAN,Inlet,1
 Non-Parent Node Connection,BREAK_ROOM_9_Z61_SUPPLYEQUIPMENTOUTLETNODE,FAN:VARIABLEVOLUME,BREAK_ROOM_9_Z61_SUPPLYFAN,Outlet,1
 Non-Parent Node Connection,MECHANICAL_9_Z62_HEATC-FANNODE,FAN:VARIABLEVOLUME,MECHANICAL_9_Z62_SUPPLYFAN,Inlet,1
 Non-Parent Node Connection,MECHANICAL_9_Z62_SUPPLYEQUIPMENTOUTLETNODE,FAN:VARIABLEVOLUME,MECHANICAL_9_Z62_SUPPLYFAN,Outlet,1
 Non-Parent Node Connection,OFFICE_OPEN_9_Z63_HEATC-FANNODE,FAN:VARIABLEVOLUME,OFFICE_OPEN_9_Z63_SUPPLYFAN,Inlet,1
 Non-Parent Node Connection,OFFICE_OPEN_9_Z63_SUPPLYEQUIPMENTOUTLETNODE,FAN:VARIABLEVOLUME,OFFICE_OPEN_9_Z63_SUPPLYFAN,Outlet,1
 Non-Parent Node Connection,OFFICE_PRIVATE_9_Z64_HEATC-FANNODE,FAN:VARIABLEVOLUME,OFFICE_PRIVATE_9_Z64_SUPPLYFAN,Inlet,1
 Non-Parent Node Connection,OFFICE_PRIVATE_9_Z64_SUPPLYEQUIPMENTOUTLETNODE,FAN:VARIABLEVOLUME,OFFICE_PRIVATE_9_Z64_SUPPLYFAN,Outlet,1
 Non-Parent Node Connection,STORAGE_9_Z65_HEATC-FANNODE,FAN:VARIABLEVOLUME,STORAGE_9_Z65_SUPPLYFAN,Inlet,1
 Non-Parent Node Connection,STORAGE_9_Z65_SUPPLYEQUIPMENTOUTLETNODE,FAN:VARIABLEVOLUME,STORAGE_9_Z65_SUPPLYFAN,Outlet,1
 Non-Parent Node Connection,LOBBY_0_Z1_SUPPLYINLET,COIL:COOLING:DX:SINGLESPEED,LOBBY_0_Z1_COOLINGCOILDX,Inlet,1
 Non-Parent Node Connection,LOBBY_0_Z1_COOLC-HEATCNODE,COIL:COOLING:DX:SINGLESPEED,LOBBY_0_Z1_COOLINGCOILDX,Outlet,1
 Non-Parent Node Connection,CONFERENCE_0_Z2_SUPPLYINLET,COIL:COOLING:DX:SINGLESPEED,CONFERENCE_0_Z2_COOLINGCOILDX,Inlet,1
 Non-Parent Node Connection,CONFERENCE_0_Z2_COOLC-HEATCNODE,COIL:COOLING:DX:SINGLESPEED,CONFERENCE_0_Z2_COOLINGCOILDX,Outlet,1
 Non-Parent Node Connection,BREAK_ROOM_0_Z3_SUPPLYINLET,COIL:COOLING:DX:SINGLESPEED,BREAK_ROOM_0_Z3_COOLINGCOILDX,Inlet,1
 Non-Parent Node Connection,BREAK_ROOM_0_Z3_COOLC-HEATCNODE,COIL:COOLING:DX:SINGLESPEED,BREAK_ROOM_0_Z3_COOLINGCOILDX,Outlet,1
 Non-Parent Node Connection,MECHANICAL_0_Z4_SUPPLYINLET,COIL:COOLING:DX:SINGLESPEED,MECHANICAL_0_Z4_COOLINGCOILDX,Inlet,1
 Non-Parent Node Connection,MECHANICAL_0_Z4_COOLC-HEATCNODE,COIL:COOLING:DX:SINGLESPEED,MECHANICAL_0_Z4_COOLINGCOILDX,Outlet,1
 Non-Parent Node Connection,OFFICE_OPEN_0_Z5_SUPPLYINLET,COIL:COOLING:DX:SINGLESPEED,OFFICE_OPEN_0_Z5_COOLINGCOILDX,Inlet,1
 Non-Parent Node Connection,OFFICE_OPEN_0_Z5_COOLC-HEATCNODE,COIL:COOLING:DX:SINGLESPEED,OFFICE_OPEN_0_Z5_COOLINGCOILDX,Outlet,1
 Non-Parent Node Connection,OFFICE_PRIVATE_0_Z6_SUPPLYINLET,COIL:COOLING:DX:SINGLESPEED,OFFICE_PRIVATE_0_Z6_COOLINGCOILDX,Inlet,1
 Non-Parent Node Connection,OFFICE_PRIVATE_0_Z6_COOLC-HEATCNODE,COIL:COOLING:DX:SINGLESPEED,OFFICE_PRIVATE_0_Z6_COOLINGCOILDX,Outlet,1
 Non-Parent Node Connection,STORAGE_0_Z7_SUPPLYINLET,COIL:COOLING:DX:SINGLESPEED,STORAGE_0_Z7_COOLINGCOILDX,Inlet,1
 Non-Parent Node Connection,STORAGE_0_Z7_COOLC-HEATCNODE,COIL:COOLING:DX:SINGLESPEED,STORAGE_0_Z7_COOLINGCOILDX,Outlet,1
 Non-Parent Node Connection,LOBBY_1_Z8_SUPPLYINLET,COIL:COOLING:DX:SINGLESPEED,LOBBY_1_Z8_COOLINGCOILDX,Inlet,1
 Non-Parent Node Connection,LOBBY_1_Z8_COOLC-HEATCNODE,COIL:COOLING:DX:SINGLESPEED,LOBBY_1_Z8_COOLINGCOILDX,Outlet,1
 Non-Parent Node Connection,CONFERENCE_1_Z9_SUPPLYINLET,COIL:COOLING:DX:SINGLESPEED,CONFERENCE_1_Z9_COOLINGCOILDX,Inlet,1
 Non-Parent Node Connection,CONFERENCE_1_Z9_COOLC-HEATCNODE,COIL:COOLING:DX:SINGLESPEED,CONFERENCE_1_Z9_COOLINGCOILDX,Outlet,1
 Non-Parent Node Connection,BREAK_ROOM_1_Z10_SUPPLYINLET,COIL:COOLING:DX:SINGLESPEED,BREAK_ROOM_1_Z10_COOLINGCOILDX,Inlet,1
 Non-Parent Node Connection,BREAK_ROOM_1_Z10_COOLC-HEATCNODE,COIL:COOLING:DX:SINGLESPEED,BREAK_ROOM_1_Z10_COOLINGCOILDX,Outlet,1
 Non-Parent Node Connection,MECHANICAL_1_Z11_SUPPLYINLET,COIL:COOLING:DX:SINGLESPEED,MECHANICAL_1_Z11_COOLINGCOILDX,Inlet,1
 Non-Parent Node Connection,MECHANICAL_1_Z11_COOLC-HEATCNODE,COIL:COOLING:DX:SINGLESPEED,MECHANICAL_1_Z11_COOLINGCOILDX,Outlet,1
 Non-Parent Node Connection,OFFICE_OPEN_1_Z12_SUPPLYINLET,COIL:COOLING:DX:SINGLESPEED,OFFICE_OPEN_1_Z12_COOLINGCOILDX,Inlet,1
 Non-Parent Node Connection,OFFICE_OPEN_1_Z12_COOLC-HEATCNODE,COIL:COOLING:DX:SINGLESPEED,OFFICE_OPEN_1_Z12_COOLINGCOILDX,Outlet,1
 Non-Parent Node Connection,OFFICE_PRIVATE_1_Z13_SUPPLYINLET,COIL:COOLING:DX:SINGLESPEED,OFFICE_PRIVATE_1_Z13_COOLINGCOILDX,Inlet,1
 Non-Parent Node Connection,OFFICE_PRIVATE_1_Z13_COOLC-HEATCNODE,COIL:COOLING:DX:SINGLESPEED,OFFICE_PRIVATE_1_Z13_COOLINGCOILDX,Outlet,1
 Non-Parent Node Connection,STORAGE_1_Z14_SUPPLYINLET,COIL:COOLING:DX:SINGLESPEED,STORAGE_1_Z14_COOLINGCOILDX,Inlet,1
 Non-Parent Node Connection,STORAGE_1_Z14_COOLC-HEATCNODE,COIL:COOLING:DX:SINGLESPEED,STORAGE_1_Z14_COOLINGCOILDX,Outlet,1
 Non-Parent Node Connection,LOBBY_2_Z15_SUPPLYINLET,COIL:COOLING:DX:SINGLESPEED,LOBBY_2_Z15_COOLINGCOILDX,Inlet,1
 Non-Parent Node Connection,LOBBY_2_Z15_COOLC-HEATCNODE,COIL:COOLING:DX:SINGLESPEED,LOBBY_2_Z15_COOLINGCOILDX,Outlet,1
 Non-Parent Node Connection,CONFERENCE_2_Z16_SUPPLYINLET,COIL:COOLING:DX:SINGLESPEED,CONFERENCE_2_Z16_COOLINGCOILDX,Inlet,1
 Non-Parent Node Connection,CONFERENCE_2_Z16_COOLC-HEATCNODE,COIL:COOLING:DX:SINGLESPEED,CONFERENCE_2_Z16_COOLINGCOILDX,Outlet,1
 Non-Parent Node Connection,MECHANICAL_2_Z17_SUPPLYINLET,COIL:COOLING:DX:SINGLESPEED,MECHANICAL_2_Z17_COOLINGCOILDX,Inlet,1
 Non-Parent Node Connection,MECHANICAL_2_Z17_COOLC-HEATCNODE,COIL:COOLING:DX:SINGLESPEED,MECHANICAL_2_Z17_COOLINGCOILDX,Outlet,1
 Non-Parent Node Connection,OFFICE_OPEN_2_Z18_SUPPLYINLET,COIL:COOLING:DX:SINGLESPEED,OFFICE_OPEN_2_Z18_COOLINGCOILDX,Inlet,1
 Non-Parent Node Connection,OFFICE_OPEN_2_Z18_COOLC-HEATCNODE,COIL:COOLING:DX:SINGLESPEED,OFFICE_OPEN_2_Z18_COOLINGCOILDX,Outlet,1
 Non-Parent Node Connection,OFFICE_PRIVATE_2_Z19_SUPPLYINLET,COIL:COOLING:DX:SINGLESPEED,OFFICE_PRIVATE_2_Z19_COOLINGCOILDX,Inlet,1
 Non-Parent Node Connection,OFFICE_PRIVATE_2_Z19_COOLC-HEATCNODE,COIL:COOLING:DX:SINGLESPEED,OFFICE_PRIVATE_2_Z19_COOLINGCOILDX,Outlet,1
 Non-Parent Node Connection,STORAGE_2_Z20_SUPPLYINLET,COIL:COOLING:DX:SINGLESPEED,STORAGE_2_Z20_COOLINGCOILDX,Inlet,1
 Non-Parent Node Connection,STORAGE_2_Z20_COOLC-HEATCNODE,COIL:COOLING:DX:SINGLESPEED,STORAGE_2_Z20_COOLINGCOILDX,Outlet,1
 Non-Parent Node Connection,LOBBY_3_Z21_SUPPLYINLET,COIL:COOLING:DX:SINGLESPEED,LOBBY_3_Z21_COOLINGCOILDX,Inlet,1
 Non-Parent Node Connection,LOBBY_3_Z21_COOLC-HEATCNODE,COIL:COOLING:DX:SINGLESPEED,LOBBY_3_Z21_COOLINGCOILDX,Outlet,1
 Non-Parent Node Connection,CONFERENCE_3_Z22_SUPPLYINLET,COIL:COOLING:DX:SINGLESPEED,CONFERENCE_3_Z22_COOLINGCOILDX,Inlet,1
 Non-Parent Node Connection,CONFERENCE_3_Z22_COOLC-HEATCNODE,COIL:COOLING:DX:SINGLESPEED,CONFERENCE_3_Z22_COOLINGCOILDX,Outlet,1
 Non-Parent Node Connection,BREAK_ROOM_3_Z23_SUPPLYINLET,COIL:COOLING:DX:SINGLESPEED,BREAK_ROOM_3_Z23_COOLINGCOILDX,Inlet,1
 Non-Parent Node Connection,BREAK_ROOM_3_Z23_COOLC-HEATCNODE,COIL:COOLING:DX:SINGLESPEED,BREAK_ROOM_3_Z23_COOLINGCOILDX,Outlet,1
 Non-Parent Node Connection,MECHANICAL_3_Z24_SUPPLYINLET,COIL:COOLING:DX:SINGLESPEED,MECHANICAL_3_Z24_COOLINGCOILDX,Inlet,1
 Non-Parent Node Connection,MECHANICAL_3_Z24_COOLC-HEATCNODE,COIL:COOLING:DX:SINGLESPEED,MECHANICAL_3_Z24_COOLINGCOILDX,Outlet,1
 Non-Parent Node Connection,OFFICE_OPEN_3_Z25_SUPPLYINLET,COIL:COOLING:DX:SINGLESPEED,OFFICE_OPEN_3_Z25_COOLINGCOILDX,Inlet,1
 Non-Parent Node Connection,OFFICE_OPEN_3_Z25_COOLC-HEATCNODE,COIL:COOLING:DX:SINGLESPEED,OFFICE_OPEN_3_Z25_COOLINGCOILDX,Outlet,1
 Non-Parent Node Connection,OFFICE_PRIVATE_3_Z26_SUPPLYINLET,COIL:COOLING:DX:SINGLESPEED,OFFICE_PRIVATE_3_Z26_COOLINGCOILDX,Inlet,1
 Non-Parent Node Connection,OFFICE_PRIVATE_3_Z26_COOLC-HEATCNODE,COIL:COOLING:DX:SINGLESPEED,OFFICE_PRIVATE_3_Z26_COOLINGCOILDX,Outlet,1
 Non-Parent Node Connection,STORAGE_3_Z27_SUPPLYINLET,COIL:COOLING:DX:SINGLESPEED,STORAGE_3_Z27_COOLINGCOILDX,Inlet,1
 Non-Parent Node Connection,STORAGE_3_Z27_COOLC-HEATCNODE,COIL:COOLING:DX:SINGLESPEED,STORAGE_3_Z27_COOLINGCOILDX,Outlet,1
 Non-Parent Node Connection,LOBBY_4_Z28_SUPPLYINLET,COIL:COOLING:DX:SINGLESPEED,LOBBY_4_Z28_COOLINGCOILDX,Inlet,1
 Non-Parent Node Connection,LOBBY_4_Z28_COOLC-HEATCNODE,COIL:COOLING:DX:SINGLESPEED,LOBBY_4_Z28_COOLINGCOILDX,Outlet,1
 Non-Parent Node Connection,CONFERENCE_4_Z29_SUPPLYINLET,COIL:COOLING:DX:SINGLESPEED,CONFERENCE_4_Z29_COOLINGCOILDX,Inlet,1
 Non-Parent Node Connection,CONFERENCE_4_Z29_COOLC-HEATCNODE,COIL:COOLING:DX:SINGLESPEED,CONFERENCE_4_Z29_COOLINGCOILDX,Outlet,1
 Non-Parent Node Connection,BREAK_ROOM_4_Z30_SUPPLYINLET,COIL:COOLING:DX:SINGLESPEED,BREAK_ROOM_4_Z30_COOLINGCOILDX,Inlet,1
 Non-Parent Node Connection,BREAK_ROOM_4_Z30_COOLC-HEATCNODE,COIL:COOLING:DX:SINGLESPEED,BREAK_ROOM_4_Z30_COOLINGCOILDX,Outlet,1
 Non-Parent Node Connection,MECHANICAL_4_Z31_SUPPLYINLET,COIL:COOLING:DX:SINGLESPEED,MECHANICAL_4_Z31_COOLINGCOILDX,Inlet,1
 Non-Parent Node Connection,MECHANICAL_4_Z31_COOLC-HEATCNODE,COIL:COOLING:DX:SINGLESPEED,MECHANICAL_4_Z31_COOLINGCOILDX,Outlet,1
 Non-Parent Node Connection,OFFICE_OPEN_4_Z32_SUPPLYINLET,COIL:COOLING:DX:SINGLESPEED,OFFICE_OPEN_4_Z32_COOLINGCOILDX,Inlet,1
 Non-Parent Node Connection,OFFICE_OPEN_4_Z32_COOLC-HEATCNODE,COIL:COOLING:DX:SINGLESPEED,OFFICE_OPEN_4_Z32_COOLINGCOILDX,Outlet,1
 Non-Parent Node Connection,OFFICE_PRIVATE_4_Z33_SUPPLYINLET,COIL:COOLING:DX:SINGLESPEED,OFFICE_PRIVATE_4_Z33_COOLINGCOILDX,Inlet,1
 Non-Parent Node Connection,OFFICE_PRIVATE_4_Z33_COOLC-HEATCNODE,COIL:COOLING:DX:SINGLESPEED,OFFICE_PRIVATE_4_Z33_COOLINGCOILDX,Outlet,1
 Non-Parent Node Connection,STORAGE_4_Z34_SUPPLYINLET,COIL:COOLING:DX:SINGLESPEED,STORAGE_4_Z34_COOLINGCOILDX,Inlet,1
 Non-Parent Node Connection,STORAGE_4_Z34_COOLC-HEATCNODE,COIL:COOLING:DX:SINGLESPEED,STORAGE_4_Z34_COOLINGCOILDX,Outlet,1
 Non-Parent Node Connection,LOBBY_5_Z35_SUPPLYINLET,COIL:COOLING:DX:SINGLESPEED,LOBBY_5_Z35_COOLINGCOILDX,Inlet,1
 Non-Parent Node Connection,LOBBY_5_Z35_COOLC-HEATCNODE,COIL:COOLING:DX:SINGLESPEED,LOBBY_5_Z35_COOLINGCOILDX,Outlet,1
 Non-Parent Node Connection,CONFERENCE_5_Z36_SUPPLYINLET,COIL:COOLING:DX:SINGLESPEED,CONFERENCE_5_Z36_COOLINGCOILDX,Inlet,1
 Non-Parent Node Connection,CONFERENCE_5_Z36_COOLC-HEATCNODE,COIL:COOLING:DX:SINGLESPEED,CONFERENCE_5_Z36_COOLINGCOILDX,Outlet,1
 Non-Parent Node Connection,BREAK_ROOM_5_Z37_SUPPLYINLET,COIL:COOLING:DX:SINGLESPEED,BREAK_ROOM_5_Z37_COOLINGCOILDX,Inlet,1
 Non-Parent Node Connection,BREAK_ROOM_5_Z37_COOLC-HEATCNODE,COIL:COOLING:DX:SINGLESPEED,BREAK_ROOM_5_Z37_COOLINGCOILDX,Outlet,1
 Non-Parent Node Connection,MECHANICAL_5_Z38_SUPPLYINLET,COIL:COOLING:DX:SINGLESPEED,MECHANICAL_5_Z38_COOLINGCOILDX,Inlet,1
 Non-Parent Node Connection,MECHANICAL_5_Z38_COOLC-HEATCNODE,COIL:COOLING:DX:SINGLESPEED,MECHANICAL_5_Z38_COOLINGCOILDX,Outlet,1
 Non-Parent Node Connection,OFFICE_OPEN_5_Z39_SUPPLYINLET,COIL:COOLING:DX:SINGLESPEED,OFFICE_OPEN_5_Z39_COOLINGCOILDX,Inlet,1
 Non-Parent Node Connection,OFFICE_OPEN_5_Z39_COOLC-HEATCNODE,COIL:COOLING:DX:SINGLESPEED,OFFICE_OPEN_5_Z39_COOLINGCOILDX,Outlet,1
 Non-Parent Node Connection,OFFICE_PRIVATE_5_Z40_SUPPLYINLET,COIL:COOLING:DX:SINGLESPEED,OFFICE_PRIVATE_5_Z40_COOLINGCOILDX,Inlet,1
 Non-Parent Node Connection,OFFICE_PRIVATE_5_Z40_COOLC-HEATCNODE,COIL:COOLING:DX:SINGLESPEED,OFFICE_PRIVATE_5_Z40_COOLINGCOILDX,Outlet,1
 Non-Parent Node Connection,STORAGE_5_Z41_SUPPLYINLET,COIL:COOLING:DX:SINGLESPEED,STORAGE_5_Z41_COOLINGCOILDX,Inlet,1
 Non-Parent Node Connection,STORAGE_5_Z41_COOLC-HEATCNODE,COIL:COOLING:DX:SINGLESPEED,STORAGE_5_Z41_COOLINGCOILDX,Outlet,1
 Non-Parent Node Connection,LOBBY_6_Z42_SUPPLYINLET,COIL:COOLING:DX:SINGLESPEED,LOBBY_6_Z42_COOLINGCOILDX,Inlet,1
 Non-Parent Node Connection,LOBBY_6_Z42_COOLC-HEATCNODE,COIL:COOLING:DX:SINGLESPEED,LOBBY_6_Z42_COOLINGCOILDX,Outlet,1
 Non-Parent Node Connection,CONFERENCE_6_Z43_SUPPLYINLET,COIL:COOLING:DX:SINGLESPEED,CONFERENCE_6_Z43_COOLINGCOILDX,Inlet,1
 Non-Parent Node Connection,CONFERENCE_6_Z43_COOLC-HEATCNODE,COIL:COOLING:DX:SINGLESPEED,CONFERENCE_6_Z43_COOLINGCOILDX,Outlet,1
 Non-Parent Node Connection,MECHANICAL_6_Z44_SUPPLYINLET,COIL:COOLING:DX:SINGLESPEED,MECHANICAL_6_Z44_COOLINGCOILDX,Inlet,1
 Non-Parent Node Connection,MECHANICAL_6_Z44_COOLC-HEATCNODE,COIL:COOLING:DX:SINGLESPEED,MECHANICAL_6_Z44_COOLINGCOILDX,Outlet,1
 Non-Parent Node Connection,OFFICE_OPEN_6_Z45_SUPPLYINLET,COIL:COOLING:DX:SINGLESPEED,OFFICE_OPEN_6_Z45_COOLINGCOILDX,Inlet,1
 Non-Parent Node Connection,OFFICE_OPEN_6_Z45_COOLC-HEATCNODE,COIL:COOLING:DX:SINGLESPEED,OFFICE_OPEN_6_Z45_COOLINGCOILDX,Outlet,1
 Non-Parent Node Connection,OFFICE_PRIVATE_6_Z46_SUPPLYINLET,COIL:COOLING:DX:SINGLESPEED,OFFICE_PRIVATE_6_Z46_COOLINGCOILDX,Inlet,1
 Non-Parent Node Connection,OFFICE_PRIVATE_6_Z46_COOLC-HEATCNODE,COIL:COOLING:DX:SINGLESPEED,OFFICE_PRIVATE_6_Z46_COOLINGCOILDX,Outlet,1
 Non-Parent Node Connection,STORAGE_6_Z47_SUPPLYINLET,COIL:COOLING:DX:SINGLESPEED,STORAGE_6_Z47_COOLINGCOILDX,Inlet,1
 Non-Parent Node Connection,STORAGE_6_Z47_COOLC-HEATCNODE,COIL:COOLING:DX:SINGLESPEED,STORAGE_6_Z47_COOLINGCOILDX,Outlet,1
 Non-Parent Node Connection,LOBBY_7_Z48_SUPPLYINLET,COIL:COOLING:DX:SINGLESPEED,LOBBY_7_Z48_COOLINGCOILDX,Inlet,1
 Non-Parent Node Connection,LOBBY_7_Z48_COOLC-HEATCNODE,COIL:COOLING:DX:SINGLESPEED,LOBBY_7_Z48_COOLINGCOILDX,Outlet,1
 Non-Parent Node Connection,CONFERENCE_7_Z49_SUPPLYINLET,COIL:COOLING:DX:SINGLESPEED,CONFERENCE_7_Z49_COOLINGCOILDX,Inlet,1
 Non-Parent Node Connection,CONFERENCE_7_Z49_COOLC-HEATCNODE,COIL:COOLING:DX:SINGLESPEED,CONFERENCE_7_Z49_COOLINGCOILDX,Outlet,1
 Non-Parent Node Connection,BREAK_ROOM_7_Z50_SUPPLYINLET,COIL:COOLING:DX:SINGLESPEED,BREAK_ROOM_7_Z50_COOLINGCOILDX,Inlet,1
 Non-Parent Node Connection,BREAK_ROOM_7_Z50_COOLC-HEATCNODE,COIL:COOLING:DX:SINGLESPEED,BREAK_ROOM_7_Z50_COOLINGCOILDX,Outlet,1
 Non-Parent Node Connection,MECHANICAL_7_Z51_SUPPLYINLET,COIL:COOLING:DX:SINGLESPEED,MECHANICAL_7_Z51_COOLINGCOILDX,Inlet,1
 Non-Parent Node Connection,MECHANICAL_7_Z51_COOLC-HEATCNODE,COIL:COOLING:DX:SINGLESPEED,MECHANICAL_7_Z51_COOLINGCOILDX,Outlet,1
 Non-Parent Node Connection,OFFICE_OPEN_7_Z52_SUPPLYINLET,COIL:COOLING:DX:SINGLESPEED,OFFICE_OPEN_7_Z52_COOLINGCOILDX,Inlet,1
 Non-Parent Node Connection,OFFICE_OPEN_7_Z52_COOLC-HEATCNODE,COIL:COOLING:DX:SINGLESPEED,OFFICE_OPEN_7_Z52_COOLINGCOILDX,Outlet,1
 Non-Parent Node Connection,OFFICE_PRIVATE_7_Z53_SUPPLYINLET,COIL:COOLING:DX:SINGLESPEED,OFFICE_PRIVATE_7_Z53_COOLINGCOILDX,Inlet,1
 Non-Parent Node Connection,OFFICE_PRIVATE_7_Z53_COOLC-HEATCNODE,COIL:COOLING:DX:SINGLESPEED,OFFICE_PRIVATE_7_Z53_COOLINGCOILDX,Outlet,1
 Non-Parent Node Connection,STORAGE_7_Z54_SUPPLYINLET,COIL:COOLING:DX:SINGLESPEED,STORAGE_7_Z54_COOLINGCOILDX,Inlet,1
 Non-Parent Node Connection,STORAGE_7_Z54_COOLC-HEATCNODE,COIL:COOLING:DX:SINGLESPEED,STORAGE_7_Z54_COOLINGCOILDX,Outlet,1
 Non-Parent Node Connection,BREAK_ROOM_8_Z55_SUPPLYINLET,COIL:COOLING:DX:SINGLESPEED,BREAK_ROOM_8_Z55_COOLINGCOILDX,Inlet,1
 Non-Parent Node Connection,BREAK_ROOM_8_Z55_COOLC-HEATCNODE,COIL:COOLING:DX:SINGLESPEED,BREAK_ROOM_8_Z55_COOLINGCOILDX,Outlet,1
 Non-Parent Node Connection,MECHANICAL_8_Z56_SUPPLYINLET,COIL:COOLING:DX:SINGLESPEED,MECHANICAL_8_Z56_COOLINGCOILDX,Inlet,1
 Non-Parent Node Connection,MECHANICAL_8_Z56_COOLC-HEATCNODE,COIL:COOLING:DX:SINGLESPEED,MECHANICAL_8_Z56_COOLINGCOILDX,Outlet,1
 Non-Parent Node Connection,OFFICE_OPEN_8_Z57_SUPPLYINLET,COIL:COOLING:DX:SINGLESPEED,OFFICE_OPEN_8_Z57_COOLINGCOILDX,Inlet,1
 Non-Parent Node Connection,OFFICE_OPEN_8_Z57_COOLC-HEATCNODE,COIL:COOLING:DX:SINGLESPEED,OFFICE_OPEN_8_Z57_COOLINGCOILDX,Outlet,1
 Non-Parent Node Connection,OFFICE_PRIVATE_8_Z58_SUPPLYINLET,COIL:COOLING:DX:SINGLESPEED,OFFICE_PRIVATE_8_Z58_COOLINGCOILDX,Inlet,1
 Non-Parent Node Connection,OFFICE_PRIVATE_8_Z58_COOLC-HEATCNODE,COIL:COOLING:DX:SINGLESPEED,OFFICE_PRIVATE_8_Z58_COOLINGCOILDX,Outlet,1
 Non-Parent Node Connection,STORAGE_8_Z59_SUPPLYINLET,COIL:COOLING:DX:SINGLESPEED,STORAGE_8_Z59_COOLINGCOILDX,Inlet,1
 Non-Parent Node Connection,STORAGE_8_Z59_COOLC-HEATCNODE,COIL:COOLING:DX:SINGLESPEED,STORAGE_8_Z59_COOLINGCOILDX,Outlet,1
 Non-Parent Node Connection,LOBBY_9_Z60_SUPPLYINLET,COIL:COOLING:DX:SINGLESPEED,LOBBY_9_Z60_COOLINGCOILDX,Inlet,1
 Non-Parent Node Connection,LOBBY_9_Z60_COOLC-HEATCNODE,COIL:COOLING:DX:SINGLESPEED,LOBBY_9_Z60_COOLINGCOILDX,Outlet,1
 Non-Parent Node Connection,BREAK_ROOM_9_Z61_SUPPLYINLET,COIL:COOLING:DX:SINGLESPEED,BREAK_ROOM_9_Z61_COOLINGCOILDX,Inlet,1
 Non-Parent Node Connection,BREAK_ROOM_9_Z61_COOLC-HEATCNODE,COIL:COOLING:DX:SINGLESPEED,BREAK_ROOM_9_Z61_COOLINGCOILDX,Outlet,1
 Non-Parent Node Connection,MECHANICAL_9_Z62_SUPPLYINLET,COIL:COOLING:DX:SINGLESPEED,MECHANICAL_9_Z62_COOLINGCOILDX,Inlet,1
 Non-Parent Node Connection,MECHANICAL_9_Z62_COOLC-HEATCNODE,COIL:COOLING:DX:SINGLESPEED,MECHANICAL_9_Z62_COOLINGCOILDX,Outlet,1
 Non-Parent Node Connection,OFFICE_OPEN_9_Z63_SUPPLYINLET,COIL:COOLING:DX:SINGLESPEED,OFFICE_OPEN_9_Z63_COOLINGCOILDX,Inlet,1
 Non-Parent Node Connection,OFFICE_OPEN_9_Z63_COOLC-HEATCNODE,COIL:COOLING:DX:SINGLESPEED,OFFICE_OPEN_9_Z63_COOLINGCOILDX,Outlet,1
 Non-Parent Node Connection,OFFICE_PRIVATE_9_Z64_SUPPLYINLET,COIL:COOLING:DX:SINGLESPEED,OFFICE_PRIVATE_9_Z64_COOLINGCOILDX,Inlet,1
 Non-Parent Node Connection,OFFICE_PRIVATE_9_Z64_COOLC-HEATCNODE,COIL:COOLING:DX:SINGLESPEED,OFFICE_PRIVATE_9_Z64_COOLINGCOILDX,Outlet,1
 Non-Parent Node Connection,STORAGE_9_Z65_SUPPLYINLET,COIL:COOLING:DX:SINGLESPEED,STORAGE_9_Z65_COOLINGCOILDX,Inlet,1
 Non-Parent Node Connection,STORAGE_9_Z65_COOLC-HEATCNODE,COIL:COOLING:DX:SINGLESPEED,STORAGE_9_Z65_COOLINGCOILDX,Outlet,1
