Program Version,EnergyPlus, Version 24.2.0-94a887817b, YMD=2025.11.02 19:18
! <Version>, Version ID
 Version, 24.2.0
! <Timesteps per Hour>, #TimeSteps, Minutes per TimeStep {minutes}
 Timesteps per Hour,  4, 15
! <System Convergence Limits>, Minimum System TimeStep {minutes}, Max HVAC Iterations, Minimum Plant Iterations, Maximum Plant Iterations
 System Convergence Limits, 1, 20, 2, 8
! <Simulation Control>, Do Zone Sizing, Do System Sizing, Do Plant Sizing, Do Design Days, Do Weather Simulation, Do HVAC Sizing Simulation
 Simulation Control, No, No, No, No, Yes, No
! <Performance Precision Tradeoffs>, Use Coil Direct Simulation, Zone Radiant Exchange Algorithm, Override Mode, Number of Timestep In Hour, Force Euler Method, Minimum Number of Warmup Days, Force Suppress All Begin Environment Resets, Minimum System Timestep, MaxZoneTempDiff, MaxAllowedDelTemp
 Performance Precision Tradeoffs, No, ScriptF, Normal, 4, No, 1, No, 1.0, 0.300, 2.0000E-003
! <Output Reporting Tolerances>, Tolerance for Time Heating Setpoint Not Met, Tolerance for Zone Cooling Setpoint Not Met Time
 Output Reporting Tolerances, 0.200, 0.200, 
! <Site:GroundTemperature:BuildingSurface>,Jan{C},Feb{C},Mar{C},Apr{C},May{C},Jun{C},Jul{C},Aug{C},Sep{C},Oct{C},Nov{C},Dec{C}
 Site:GroundTemperature:BuildingSurface,  13.00,  12.00,  11.00,  10.00,  11.00,  13.00,  15.00,  16.00,  16.00,  15.00,  14.00,  13.00
! <Site:GroundTemperature:FCfactorMethod>,Jan{C},Feb{C},Mar{C},Apr{C},May{C},Jun{C},Jul{C},Aug{C},Sep{C},Oct{C},Nov{C},Dec{C}
 Site:GroundTemperature:FCfactorMethod,  -1.89,  -3.06,  -0.99,   2.23,  10.68,  17.20,  21.60,  22.94,  20.66,  15.60,   8.83,   2.56
! <Site:GroundTemperature:Shallow>,Jan{C},Feb{C},Mar{C},Apr{C},May{C},Jun{C},Jul{C},Aug{C},Sep{C},Oct{C},Nov{C},Dec{C}
 Site:GroundTemperature:Shallow,  11.00,  10.00,   9.00,   8.00,   9.00,  11.00,  13.00,  14.00,  14.00,  13.00,  12.00,  11.00
! <Site:GroundTemperature:Deep>,Jan{C},Feb{C},Mar{C},Apr{C},May{C},Jun{C},Jul{C},Aug{C},Sep{C},Oct{C},Nov{C},Dec{C}
 Site:GroundTemperature:Deep,   9.00,   8.00,   7.00,   6.00,   7.00,   9.00,  11.00,  12.00,  12.00,  11.00,  10.00,   9.00
! <Site:GroundReflectance>,Jan{dimensionless},Feb{dimensionless},Mar{dimensionless},Apr{dimensionless},May{dimensionless},Jun{dimensionless},Jul{dimensionless},Aug{dimensionless},Sep{dimensionless},Oct{dimensionless},Nov{dimensionless},Dec{dimensionless}
 Site:GroundReflectance,  0.20,  0.20,  0.20,  0.20,  0.20,  0.20,  0.20,  0.20,  0.20,  0.20,  0.20,  0.20
! <Site:GroundReflectance:SnowModifier>, Normal, Daylighting {dimensionless}
 Site:GroundReflectance:SnowModifier,   1.000,   1.000
! <Site:GroundReflectance:Snow>,Jan{dimensionless},Feb{dimensionless},Mar{dimensionless},Apr{dimensionless},May{dimensionless},Jun{dimensionless},Jul{dimensionless},Aug{dimensionless},Sep{dimensionless},Oct{dimensionless},Nov{dimensionless},Dec{dimensionless}
 Site:GroundReflectance:Snow,  0.20,  0.20,  0.20,  0.20,  0.20,  0.20,  0.20,  0.20,  0.20,  0.20,  0.20,  0.20
! <Site:GroundReflectance:Snow:Daylighting>,Jan{dimensionless},Feb{dimensionless},Mar{dimensionless},Apr{dimensionless},May{dimensionless},Jun{dimensionless},Jul{dimensionless},Aug{dimensionless},Sep{dimensionless},Oct{dimensionless},Nov{dimensionless},Dec{dimensionless}
 Site:GroundReflectance:Snow:Daylighting,  0.20,  0.20,  0.20,  0.20,  0.20,  0.20,  0.20,  0.20,  0.20,  0.20,  0.20,  0.20
! <Environment:Weather Station>,Wind Sensor Height Above Ground {m},Wind Speed Profile Exponent {},Wind Speed Profile Boundary Layer Thickness {m},Air Temperature Sensor Height Above Ground {m},Wind Speed Modifier Coefficient-Internal,Temperature Modifier Coefficient-Internal
Environment:Weather Station,10.000,0.140,270.000,1.500,1.586,9.750E-003
! <Site:Location>, Location Name, Latitude {N+/S- Deg}, Longitude {E+/W- Deg},  Time Zone Number {GMT+/-}, Elevation {m},  Standard Pressure at Elevation {Pa}, Standard RhoAir at Elevation
Site:Location,Chicago Ohare Intl Ap IL USA TMY3 WMO#=725300,41.98,-87.92,-6.00,201.00,98934,1.1759
! <Site Water Mains Temperature Information>,Calculation Method{},Water Mains Temperature Schedule Name{},Annual Average Outdoor Air Temperature{C},Maximum Difference In Monthly Average Outdoor Air Temperatures{deltaC},Fixed Default Water Mains Temperature{C}
Site Water Mains Temperature Information,FixedDefault,NA,NA,NA,10.0
! <Building Information>, Building Name,North Axis {deg},Terrain,  Loads Convergence Tolerance Value,Temperature Convergence Tolerance Value,  Solar Distribution,Maximum Number of Warmup Days,Minimum Number of Warmup Days
 Building Information,Professional Building,0.000,Suburbs,4.00000E-002,0.20000,FullInteriorAndExterior,15,6
! <Inside Convection Algorithm>, Algorithm {Simple | TARP | CeilingDiffuser | AdaptiveConvectionAlgorithm}
Inside Convection Algorithm,TARP
! <Outside Convection Algorithm>, Algorithm {SimpleCombined | TARP | MoWitt | DOE-2 | AdaptiveConvectionAlgorithm}
Outside Convection Algorithm,DOE-2
! <Sky Radiance Distribution>, Value {Anisotropic}
Sky Radiance Distribution,Anisotropic
! <Zone Air Solution Algorithm>, Algorithm {ThirdOrderBackwardDifference | AnalyticalSolution | EulerMethod}, Space Heat Balance Sizing, Space Heat Balance Simulation
 Zone Air Solution Algorithm, ThirdOrderBackwardDifference, No, No
! <Zone Air Carbon Dioxide Balance Simulation>, Simulation {Yes/No}, Carbon Dioxide Concentration
 Zone Air Carbon Dioxide Balance Simulation, No,N/A
! <Zone Air Generic Contaminant Balance Simulation>, Simulation {Yes/No}, Generic Contaminant Concentration
 Zone Air Generic Contaminant Balance Simulation, No,N/A
! <Zone Air Mass Flow Balance Simulation>, Enforce Mass Balance, Adjust Zone Mixing and Return {AdjustMixingOnly | AdjustReturnOnly | AdjustMixingThenReturn | AdjustReturnThenMixing | None}, Adjust Zone Infiltration {AddInfiltration | AdjustInfiltration | None}, Infiltration Zones {MixingSourceZonesOnly | AllZones}
 Zone Air Mass Flow Balance Simulation, No,N/A,N/A,N/A
! <HVACSystemRootFindingAlgorithm>, Value {RegulaFalsi | Bisection | BisectionThenRegulaFalsi | RegulaFalsiThenBisection}
 HVACSystemRootFindingAlgorithm, RegulaFalsi
! <Environment:Site Atmospheric Variation>,Wind Speed Profile Exponent {},Wind Speed Profile Boundary Layer Thickness {m},Air Temperature Gradient Coefficient {K/m}
Environment:Site Atmospheric Variation,0.220,370.000,6.500000E-003
! <Shadowing/Sun Position Calculations Annual Simulations>, Shading Calculation Method, Shading Calculation Update Frequency Method, Shading Calculation Update Frequency {days}, Maximum Figures in Shadow Overlap Calculations {}, Polygon Clipping Algorithm, Pixel Counting Resolution, Sky Diffuse Modeling Algorithm, Output External Shading Calculation Results, Disable Self-Shading Within Shading Zone Groups, Disable Self-Shading From Shading Zone Groups to Other Zones
Shadowing/Sun Position Calculations Annual Simulations,PolygonClipping,Periodic,20,15000,SutherlandHodgman,512,SimpleSkyDiffuseModeling,No,No,No
! <Surface Geometry>,Starting Corner,Vertex Input Direction,Coordinate System,Daylight Reference Point Coordinate System,Rectangular (Simple) Surface Coordinate System
 Surface Geometry,UpperLeftCorner,Counterclockwise,RelativeCoordinateSystem,RelativeCoordinateSystem,RelativeToZoneOrigin
! <Surface Heat Transfer Algorithm>, Value {CTF - ConductionTransferFunction | EMPD - MoisturePenetrationDepthConductionTransferFunction | CondFD - ConductionFiniteDifference | HAMT - CombinedHeatAndMoistureFiniteElement} - Description,Inside Surface Max Temperature Limit{C}, Surface Convection Coefficient Lower Limit {W/m2-K}, Surface Convection Coefficient Upper Limit {W/m2-K}
Surface Heat Transfer Algorithm, CTF - ConductionTransferFunction,200,0.10,1000.0
! <Shading Summary>, Number of Fixed Detached Shades, Number of Building Detached Shades, Number of Attached Shades
 Shading Summary,0,0,0
! <Zone Summary>, Number of Zones, Number of Zone Surfaces, Number of SubSurfaces
 Zone Summary,27,297,108
! <Zone Information>,Zone Name,North Axis {deg},Origin X-Coordinate {m},Origin Y-Coordinate {m},Origin Z-Coordinate {m},Centroid X-Coordinate {m},Centroid Y-Coordinate {m},Centroid Z-Coordinate {m},Type,Zone Multiplier,Zone List Multiplier,Minimum X {m},Maximum X {m},Minimum Y {m},Maximum Y {m},Minimum Z {m},Maximum Z {m},Ceiling Height {m},Volume {m3},Zone Inside Convection Algorithm {Simple-Detailed-CeilingDiffuser-TrombeWall},Zone Outside Convection Algorithm {Simple-Detailed-Tarp-MoWitt-DOE-2-BLAST}, Floor Area {m2},Exterior Gross Wall Area {m2},Exterior Net Wall Area {m2},Exterior Window Area {m2}, Number of Surfaces, Number of SubSurfaces, Number of Shading SubSurfaces,  Part of Total Building Area
 Zone Information, LOBBY_0,0.0,0.00,0.00,0.00,-14.61,-14.24,1.50,1,1,1,-19.58,-9.65,-23.09,-5.39,0.00,3.00,3.00,518.98,TARP,DOE-2,172.99,164.57,115.04,49.53,6,4,0,Yes
 Zone Information, CONFERENCE_0,0.0,0.00,0.00,0.00,-10.50,-9.51,1.50,1,1,1,-13.32,-7.67,-13.16,-5.85,0.00,3.00,3.00,119.97,TARP,DOE-2,39.99,76.54,53.50,23.04,6,4,0,Yes
 Zone Information, BREAK_ROOM_0,0.0,0.00,0.00,0.00,-83.75,-113.70,1.50,1,1,1,-87.26,-80.23,-118.78,-108.61,0.00,3.00,3.00,209.23,TARP,DOE-2,69.74,101.97,71.28,30.69,6,4,0,Yes
 Zone Information, MECHANICAL_0,0.0,0.00,0.00,0.00,-28.68,-67.73,1.50,1,1,1,-31.45,-25.92,-72.94,-62.52,0.00,3.00,3.00,168.02,TARP,DOE-2,56.01,94.48,66.05,28.43,6,4,0,Yes
 Zone Information, OFFICE_OPEN_0,0.0,0.00,0.00,0.00,-68.51,-16.43,1.50,1,1,1,-78.22,-58.80,-26.38,-6.48,0.00,3.00,3.00,1148.13,TARP,DOE-2,382.71,234.77,164.11,70.66,6,4,0,Yes
 Zone Information, OFFICE_PRIVATE_0,0.0,0.00,0.00,0.00,-38.66,-108.39,1.50,1,1,1,-40.49,-36.83,-110.69,-106.08,0.00,3.00,3.00,48.19,TARP,DOE-2,16.06,48.43,33.86,14.58,6,4,0,Yes
 Zone Information, STORAGE_0,0.0,0.00,0.00,0.00,-32.07,-80.90,1.50,1,1,1,-33.51,-30.63,-83.14,-78.66,0.00,3.00,3.00,36.48,TARP,DOE-2,12.16,42.93,30.01,12.92,6,4,0,Yes
 Zone Information, BREAK_ROOM_1,0.0,0.00,0.00,0.00,-70.26,-53.08,4.50,1,1,1,-72.66,-67.87,-57.31,-48.85,3.00,6.00,3.00,117.84,TARP,DOE-2,39.28,78.35,54.77,23.58,6,4,0,Yes
 Zone Information, MECHANICAL_1,0.0,0.00,0.00,0.00,-9.17,-19.55,4.50,1,1,1,-12.48,-5.87,-23.65,-15.45,3.00,6.00,3.00,158.10,TARP,DOE-2,52.70,87.64,61.26,26.38,6,4,0,Yes
 Zone Information, OFFICE_OPEN_1,0.0,0.00,0.00,0.00,-54.24,-82.70,4.50,1,1,1,-63.18,-45.30,-93.74,-71.66,3.00,6.00,3.00,1172.28,TARP,DOE-2,390.76,238.56,166.76,71.80,6,4,0,Yes
 Zone Information, STORAGE_1,0.0,0.00,0.00,0.00,-75.55,-47.57,4.50,1,1,1,-78.59,-72.51,-51.22,-43.92,3.00,6.00,3.00,128.98,TARP,DOE-2,42.99,79.02,55.24,23.78,6,4,0,Yes
 Zone Information, LOBBY_2,0.0,0.00,0.00,0.00,-26.76,-41.17,7.50,1,1,1,-29.92,-23.60,-46.69,-35.65,6.00,9.00,3.00,204.03,TARP,DOE-2,68.01,102.92,71.95,30.98,6,4,0,Yes
 Zone Information, BREAK_ROOM_2,0.0,0.00,0.00,0.00,-31.50,-21.96,7.50,1,1,1,-34.05,-28.94,-25.98,-17.93,6.00,9.00,3.00,119.63,TARP,DOE-2,39.88,77.81,54.39,23.42,6,4,0,Yes
 Zone Information, MECHANICAL_2,0.0,0.00,0.00,0.00,-37.22,-66.13,7.50,1,1,1,-39.62,-34.81,-69.59,-62.67,6.00,9.00,3.00,96.30,TARP,DOE-2,32.10,69.16,48.34,20.81,6,4,0,Yes
 Zone Information, OFFICE_OPEN_2,0.0,0.00,0.00,0.00,-44.91,-78.16,7.50,1,1,1,-52.90,-36.92,-92.93,-63.39,6.00,9.00,3.00,1402.75,TARP,DOE-2,467.58,271.95,190.10,81.84,6,4,0,Yes
 Zone Information, OFFICE_PRIVATE_2,0.0,0.00,0.00,0.00,-45.67,-108.70,7.50,1,1,1,-48.62,-42.72,-112.91,-104.49,6.00,9.00,3.00,144.70,TARP,DOE-2,48.23,84.70,59.21,25.49,6,4,0,Yes
 Zone Information, STORAGE_2,0.0,0.00,0.00,0.00,-21.10,-93.30,7.50,1,1,1,-23.14,-19.05,-96.97,-89.63,6.00,9.00,3.00,86.76,TARP,DOE-2,28.92,67.42,47.13,20.29,6,4,0,Yes
 Zone Information, LOBBY_3,0.0,0.00,0.00,0.00,-4.10,-98.07,10.50,1,1,1,-8.81,0.61,-106.42,-89.72,9.00,12.00,3.00,464.05,TARP,DOE-2,154.68,155.51,108.71,46.80,6,4,0,Yes
 Zone Information, CONFERENCE_3,0.0,0.00,0.00,0.00,-16.46,-67.51,10.50,1,1,1,-19.93,-13.00,-73.78,-61.24,9.00,12.00,3.00,254.99,TARP,DOE-2,85.00,115.64,80.84,34.80,6,4,0,Yes
 Zone Information, MECHANICAL_3,0.0,0.00,0.00,0.00,-48.30,-80.56,10.50,1,1,1,-50.45,-46.15,-83.20,-77.93,9.00,12.00,3.00,65.12,TARP,DOE-2,21.71,56.21,39.29,16.92,6,4,0,Yes
 Zone Information, STORAGE_3,0.0,0.00,0.00,0.00,-72.84,-94.80,10.50,1,1,1,-75.02,-70.66,-97.51,-92.09,9.00,12.00,3.00,67.95,TARP,DOE-2,22.65,57.46,40.17,17.29,6,4,0,Yes
 Zone Information, LOBBY_4,0.0,0.00,0.00,0.00,-67.41,-96.36,13.50,1,1,1,-71.38,-63.44,-103.31,-89.41,12.00,15.00,3.00,324.31,TARP,DOE-2,108.10,129.80,90.74,39.07,6,4,0,Yes
 Zone Information, CONFERENCE_4,0.0,0.00,0.00,0.00,-6.47,-81.46,13.50,1,1,1,-11.08,-1.87,-86.40,-76.53,12.00,15.00,3.00,266.90,TARP,DOE-2,88.97,113.25,79.17,34.09,6,4,0,Yes
 Zone Information, BREAK_ROOM_4,0.0,0.00,0.00,0.00,-3.70,-107.21,13.50,1,1,1,-6.74,-0.66,-111.15,-103.27,12.00,15.00,3.00,139.73,TARP,DOE-2,46.58,82.60,57.74,24.86,6,4,0,Yes
 Zone Information, MECHANICAL_4,0.0,0.00,0.00,0.00,-59.84,-29.34,13.50,1,1,1,-62.01,-57.68,-33.42,-25.26,12.00,15.00,3.00,102.38,TARP,DOE-2,34.13,73.75,51.55,22.20,6,4,0,Yes
 Zone Information, OFFICE_PRIVATE_4,0.0,0.00,0.00,0.00,-61.63,-98.51,13.50,1,1,1,-64.90,-58.36,-102.36,-94.66,12.00,15.00,3.00,146.68,TARP,DOE-2,48.89,84.20,58.86,25.34,6,4,0,Yes
 Zone Information, STORAGE_4,0.0,0.00,0.00,0.00,-11.23,-51.09,13.50,1,1,1,-13.44,-9.02,-53.59,-48.59,12.00,15.00,3.00,63.50,TARP,DOE-2,21.17,55.32,38.67,16.65,6,4,0,Yes
! <Zone Internal Gains Nominal>,Zone Name, Floor Area {m2},# Occupants,Area per Occupant {m2/person},Occupant per Area {person/m2},Interior Lighting {W/m2},Electric Load {W/m2},Gas Load {W/m2},Other Load {W/m2},Hot Water Eq {W/m2},Steam Equipment {W/m2},Sum Loads per Area {W/m2},Outdoor Controlled Baseboard Heat
 Zone Internal Gains Nominal, LOBBY_0,172.99,8.0,21.624,4.624E-002,12.900,3.200,0.000,0.000,0.000,0.000,16.100,No
 Zone Internal Gains Nominal, CONFERENCE_0,39.99,7.0,5.713,0.175,10.800,8.100,0.000,0.000,0.000,0.000,18.900,No
 Zone Internal Gains Nominal, BREAK_ROOM_0,69.74,6.0,11.624,8.603E-002,8.100,15.000,0.000,0.000,0.000,0.000,23.100,No
 Zone Internal Gains Nominal, MECHANICAL_0,56.01,1.0,56.007,1.785E-002,5.400,0.000,0.000,0.000,0.000,0.000,5.400,No
 Zone Internal Gains Nominal, OFFICE_OPEN_0,382.71,19.0,20.143,4.965E-002,10.800,8.100,0.000,0.000,0.000,0.000,18.900,No
 Zone Internal Gains Nominal, OFFICE_PRIVATE_0,16.06,1.0,16.063,6.226E-002,10.800,8.100,0.000,0.000,0.000,0.000,18.900,No
 Zone Internal Gains Nominal, STORAGE_0,12.16,1.0,12.159,8.224E-002,5.400,1.100,0.000,0.000,0.000,0.000,6.500,No
 Zone Internal Gains Nominal, BREAK_ROOM_1,39.28,3.0,13.093,7.638E-002,8.100,15.000,0.000,0.000,0.000,0.000,23.100,No
 Zone Internal Gains Nominal, MECHANICAL_1,52.70,1.0,52.698,1.898E-002,5.400,0.000,0.000,0.000,0.000,0.000,5.400,No
 Zone Internal Gains Nominal, OFFICE_OPEN_1,390.76,19.0,20.566,4.862E-002,10.800,8.100,0.000,0.000,0.000,0.000,18.900,No
 Zone Internal Gains Nominal, STORAGE_1,42.99,1.0,42.994,2.326E-002,5.400,1.100,0.000,0.000,0.000,0.000,6.500,No
 Zone Internal Gains Nominal, LOBBY_2,68.01,3.0,22.670,4.411E-002,12.900,3.200,0.000,0.000,0.000,0.000,16.100,No
 Zone Internal Gains Nominal, BREAK_ROOM_2,39.88,3.0,13.293,7.523E-002,8.100,15.000,0.000,0.000,0.000,0.000,23.100,No
 Zone Internal Gains Nominal, MECHANICAL_2,32.10,1.0,32.099,3.115E-002,5.400,0.000,0.000,0.000,0.000,0.000,5.400,No
 Zone Internal Gains Nominal, OFFICE_OPEN_2,467.58,23.0,20.330,4.919E-002,10.800,8.100,0.000,0.000,0.000,0.000,18.900,No
 Zone Internal Gains Nominal, OFFICE_PRIVATE_2,48.23,2.0,24.117,4.147E-002,10.800,8.100,0.000,0.000,0.000,0.000,18.900,No
 Zone Internal Gains Nominal, STORAGE_2,28.92,1.0,28.920,3.458E-002,5.400,1.100,0.000,0.000,0.000,0.000,6.500,No
 Zone Internal Gains Nominal, LOBBY_3,154.68,7.0,22.098,4.525E-002,12.900,3.200,0.000,0.000,0.000,0.000,16.100,No
 Zone Internal Gains Nominal, CONFERENCE_3,85.00,16.0,5.312,0.188,10.800,8.100,0.000,0.000,0.000,0.000,18.900,No
 Zone Internal Gains Nominal, MECHANICAL_3,21.71,1.0,21.707,4.607E-002,5.400,0.000,0.000,0.000,0.000,0.000,5.400,No
 Zone Internal Gains Nominal, STORAGE_3,22.65,1.0,22.649,4.415E-002,5.400,1.100,0.000,0.000,0.000,0.000,6.500,No
 Zone Internal Gains Nominal, LOBBY_4,108.10,5.0,21.621,4.625E-002,12.900,3.200,0.000,0.000,0.000,0.000,16.100,No
 Zone Internal Gains Nominal, CONFERENCE_4,88.97,17.0,5.233,0.191,10.800,8.100,0.000,0.000,0.000,0.000,18.900,No
 Zone Internal Gains Nominal, BREAK_ROOM_4,46.58,4.0,11.644,8.588E-002,8.100,15.000,0.000,0.000,0.000,0.000,23.100,No
 Zone Internal Gains Nominal, MECHANICAL_4,34.13,1.0,34.126,2.930E-002,5.400,0.000,0.000,0.000,0.000,0.000,5.400,No
 Zone Internal Gains Nominal, OFFICE_PRIVATE_4,48.89,2.0,24.447,4.090E-002,10.800,8.100,0.000,0.000,0.000,0.000,18.900,No
 Zone Internal Gains Nominal, STORAGE_4,21.17,1.0,21.167,4.724E-002,5.400,1.100,0.000,0.000,0.000,0.000,6.500,No
! <People Internal Gains Nominal>,Name,Schedule Name,Zone Name,Zone Floor Area {m2},# Zone Occupants,Number of People {},People/Floor Area {person/m2},Floor Area per person {m2/person},Fraction Radiant,Fraction Convected,Sensible Fraction Calculation,Activity level,ASHRAE 55 Warnings,Carbon Dioxide Generation Rate,Minimum Number of People for All Day Types,Maximum Number of People for All Day Types,Minimum Number of People for Weekdays, Maximum Number of People for Weekdays, Minimum Number of People for Weekends/Holidays, Maximum Number of People for Weekends /Holidays,Minimum Number of People for Summer Design Days, Maximum Number of People for Summer Design Days,Minimum Number of People for Winter Design Days, Maximum Number of People for Winter Design Days
 People Internal Gains Nominal, LOBBY_0_PEOPLE,LOBBY_OCCUPANCY,LOBBY_0,172.99,8.0,8.0,4.624E-002,21.624,0.300,0.700,0.100,LOBBY_ACTIVITY,No,3.8200E-008,1.6,1.6,1.6,1.6,1.6,1.6,1.6,1.6,1.6,1.6,
 People Internal Gains Nominal, CONFERENCE_0_PEOPLE,CONFERENCE_OCCUPANCY,CONFERENCE_0,39.99,7.0,7.0,0.175,5.713,0.300,0.700,0.100,CONFERENCE_ACTIVITY,No,3.8200E-008,0.0,7.0,0.0,7.0,0.0,0.7,0.0,0.0,0.0,0.0,
 People Internal Gains Nominal, BREAK_ROOM_0_PEOPLE,BREAK_ROOM_OCCUPANCY,BREAK_ROOM_0,69.74,6.0,6.0,8.603E-002,11.624,0.300,0.700,0.100,BREAK_ROOM_ACTIVITY,No,3.8200E-008,1.2,1.2,1.2,1.2,1.2,1.2,1.2,1.2,1.2,1.2,
 People Internal Gains Nominal, MECHANICAL_0_PEOPLE,MECHANICAL_OCCUPANCY,MECHANICAL_0,56.01,1.0,1.0,1.785E-002,56.007,0.300,0.700,0.100,MECHANICAL_ACTIVITY,No,3.8200E-008,0.2,0.2,0.2,0.2,0.2,0.2,0.2,0.2,0.2,0.2,
 People Internal Gains Nominal, OFFICE_OPEN_0_PEOPLE,OFFICE_OPEN_OCCUPANCY,OFFICE_OPEN_0,382.71,19.0,19.0,4.965E-002,20.143,0.300,0.700,0.100,OFFICE_OPEN_ACTIVITY,No,3.8200E-008,0.0,19.0,0.0,19.0,0.0,1.9,0.0,0.0,0.0,0.0,
 People Internal Gains Nominal, OFFICE_PRIVATE_0_PEOPLE,OFFICE_OPEN_OCCUPANCY,OFFICE_PRIVATE_0,16.06,1.0,1.0,6.226E-002,16.063,0.300,0.700,0.100,OFFICE_OPEN_ACTIVITY,No,3.8200E-008,0.0,1.0,0.0,1.0,0.0,0.1,0.0,0.0,0.0,0.0,
 People Internal Gains Nominal, STORAGE_0_PEOPLE,STORAGE_OCCUPANCY,STORAGE_0,12.16,1.0,1.0,8.224E-002,12.159,0.300,0.700,0.100,STORAGE_ACTIVITY,No,3.8200E-008,0.2,0.2,0.2,0.2,0.2,0.2,0.2,0.2,0.2,0.2,
 People Internal Gains Nominal, BREAK_ROOM_1_PEOPLE,BREAK_ROOM_OCCUPANCY,BREAK_ROOM_1,39.28,3.0,3.0,7.638E-002,13.093,0.300,0.700,0.100,BREAK_ROOM_ACTIVITY,No,3.8200E-008,0.6,0.6,0.6,0.6,0.6,0.6,0.6,0.6,0.6,0.6,
 People Internal Gains Nominal, MECHANICAL_1_PEOPLE,MECHANICAL_OCCUPANCY,MECHANICAL_1,52.70,1.0,1.0,1.898E-002,52.698,0.300,0.700,0.100,MECHANICAL_ACTIVITY,No,3.8200E-008,0.2,0.2,0.2,0.2,0.2,0.2,0.2,0.2,0.2,0.2,
 People Internal Gains Nominal, OFFICE_OPEN_1_PEOPLE,OFFICE_OPEN_OCCUPANCY,OFFICE_OPEN_1,390.76,19.0,19.0,4.862E-002,20.566,0.300,0.700,0.100,OFFICE_OPEN_ACTIVITY,No,3.8200E-008,0.0,19.0,0.0,19.0,0.0,1.9,0.0,0.0,0.0,0.0,
 People Internal Gains Nominal, STORAGE_1_PEOPLE,STORAGE_OCCUPANCY,STORAGE_1,42.99,1.0,1.0,2.326E-002,42.994,0.300,0.700,0.100,STORAGE_ACTIVITY,No,3.8200E-008,0.2,0.2,0.2,0.2,0.2,0.2,0.2,0.2,0.2,0.2,
 People Internal Gains Nominal, LOBBY_2_PEOPLE,LOBBY_OCCUPANCY,LOBBY_2,68.01,3.0,3.0,4.411E-002,22.670,0.300,0.700,0.100,LOBBY_ACTIVITY,No,3.8200E-008,0.6,0.6,0.6,0.6,0.6,0.6,0.6,0.6,0.6,0.6,
 People Internal Gains Nominal, BREAK_ROOM_2_PEOPLE,BREAK_ROOM_OCCUPANCY,BREAK_ROOM_2,39.88,3.0,3.0,7.523E-002,13.293,0.300,0.700,0.100,BREAK_ROOM_ACTIVITY,No,3.8200E-008,0.6,0.6,0.6,0.6,0.6,0.6,0.6,0.6,0.6,0.6,
 People Internal Gains Nominal, MECHANICAL_2_PEOPLE,MECHANICAL_OCCUPANCY,MECHANICAL_2,32.10,1.0,1.0,3.115E-002,32.099,0.300,0.700,0.100,MECHANICAL_ACTIVITY,No,3.8200E-008,0.2,0.2,0.2,0.2,0.2,0.2,0.2,0.2,0.2,0.2,
 People Internal Gains Nominal, OFFICE_OPEN_2_PEOPLE,OFFICE_OPEN_OCCUPANCY,OFFICE_OPEN_2,467.58,23.0,23.0,4.919E-002,20.330,0.300,0.700,0.100,OFFICE_OPEN_ACTIVITY,No,3.8200E-008,0.0,23.0,0.0,23.0,0.0,2.3,0.0,0.0,0.0,0.0,
 People Internal Gains Nominal, OFFICE_PRIVATE_2_PEOPLE,OFFICE_OPEN_OCCUPANCY,OFFICE_PRIVATE_2,48.23,2.0,2.0,4.147E-002,24.117,0.300,0.700,0.100,OFFICE_OPEN_ACTIVITY,No,3.8200E-008,0.0,2.0,0.0,2.0,0.0,0.2,0.0,0.0,0.0,0.0,
 People Internal Gains Nominal, STORAGE_2_PEOPLE,STORAGE_OCCUPANCY,STORAGE_2,28.92,1.0,1.0,3.458E-002,28.920,0.300,0.700,0.100,STORAGE_ACTIVITY,No,3.8200E-008,0.2,0.2,0.2,0.2,0.2,0.2,0.2,0.2,0.2,0.2,
 People Internal Gains Nominal, LOBBY_3_PEOPLE,LOBBY_OCCUPANCY,LOBBY_3,154.68,7.0,7.0,4.525E-002,22.098,0.300,0.700,0.100,LOBBY_ACTIVITY,No,3.8200E-008,1.4,1.4,1.4,1.4,1.4,1.4,1.4,1.4,1.4,1.4,
 People Internal Gains Nominal, CONFERENCE_3_PEOPLE,CONFERENCE_OCCUPANCY,CONFERENCE_3,85.00,16.0,16.0,0.188,5.312,0.300,0.700,0.100,CONFERENCE_ACTIVITY,No,3.8200E-008,0.0,16.0,0.0,16.0,0.0,1.6,0.0,0.0,0.0,0.0,
 People Internal Gains Nominal, MECHANICAL_3_PEOPLE,MECHANICAL_OCCUPANCY,MECHANICAL_3,21.71,1.0,1.0,4.607E-002,21.707,0.300,0.700,0.100,MECHANICAL_ACTIVITY,No,3.8200E-008,0.2,0.2,0.2,0.2,0.2,0.2,0.2,0.2,0.2,0.2,
 People Internal Gains Nominal, STORAGE_3_PEOPLE,STORAGE_OCCUPANCY,STORAGE_3,22.65,1.0,1.0,4.415E-002,22.649,0.300,0.700,0.100,STORAGE_ACTIVITY,No,3.8200E-008,0.2,0.2,0.2,0.2,0.2,0.2,0.2,0.2,0.2,0.2,
 People Internal Gains Nominal, LOBBY_4_PEOPLE,LOBBY_OCCUPANCY,LOBBY_4,108.10,5.0,5.0,4.625E-002,21.621,0.300,0.700,0.100,LOBBY_ACTIVITY,No,3.8200E-008,1.0,1.0,1.0,1.0,1.0,1.0,1.0,1.0,1.0,1.0,
 People Internal Gains Nominal, CONFERENCE_4_PEOPLE,CONFERENCE_OCCUPANCY,CONFERENCE_4,88.97,17.0,17.0,0.191,5.233,0.300,0.700,0.100,CONFERENCE_ACTIVITY,No,3.8200E-008,0.0,17.0,0.0,17.0,0.0,1.7,0.0,0.0,0.0,0.0,
 People Internal Gains Nominal, BREAK_ROOM_4_PEOPLE,BREAK_ROOM_OCCUPANCY,BREAK_ROOM_4,46.58,4.0,4.0,8.588E-002,11.644,0.300,0.700,0.100,BREAK_ROOM_ACTIVITY,No,3.8200E-008,0.8,0.8,0.8,0.8,0.8,0.8,0.8,0.8,0.8,0.8,
 People Internal Gains Nominal, MECHANICAL_4_PEOPLE,MECHANICAL_OCCUPANCY,MECHANICAL_4,34.13,1.0,1.0,2.930E-002,34.126,0.300,0.700,0.100,MECHANICAL_ACTIVITY,No,3.8200E-008,0.2,0.2,0.2,0.2,0.2,0.2,0.2,0.2,0.2,0.2,
 People Internal Gains Nominal, OFFICE_PRIVATE_4_PEOPLE,OFFICE_OPEN_OCCUPANCY,OFFICE_PRIVATE_4,48.89,2.0,2.0,4.090E-002,24.447,0.300,0.700,0.100,OFFICE_OPEN_ACTIVITY,No,3.8200E-008,0.0,2.0,0.0,2.0,0.0,0.2,0.0,0.0,0.0,0.0,
 People Internal Gains Nominal, STORAGE_4_PEOPLE,STORAGE_OCCUPANCY,STORAGE_4,21.17,1.0,1.0,4.724E-002,21.167,0.300,0.700,0.100,STORAGE_ACTIVITY,No,3.8200E-008,0.2,0.2,0.2,0.2,0.2,0.2,0.2,0.2,0.2,0.2,
! <Lights Internal Gains Nominal>,Name,Schedule Name,Zone Name,Zone Floor Area {m2},# Zone Occupants,Lighting Level {W},Lights/Floor Area {W/m2},Lights per person {W/person},Fraction Return Air,Fraction Radiant,Fraction Short Wave,Fraction Convected,Fraction Replaceable,End-Use, Minimum Lighting Level for All Day Types {W},Maximum Lighting Level for All Day Types {W},Minimum Lighting Level for Weekdays {W}, Maximum Lighting Level for Weekdays {W},Minimum Lighting Level for Weekends/Holidays {W}, Maximum Lighting Level for Weekends /Holidays {W},Minimum Lighting Level for Summer Design Days {W}, Maximum Lighting Level for Summer Design Days {W},Minimum Lighting Level for Winter Design Days {W}, Maximum Lighting Level for Winter Design Days {W}
 Lights Internal Gains Nominal, LOBBY_0_LIGHTS,LOBBY_LIGHTING,LOBBY_0,172.99,8.0,2231.624,12.900,278.953,0.000,0.300,0.200,0.500,1.000,General,0.000,2231.624,223.162,2231.6,0.000,446.325,0.000,0.000,0.000,0.000
 Lights Internal Gains Nominal, CONFERENCE_0_LIGHTS,CONFERENCE_LIGHTING,CONFERENCE_0,39.99,7.0,431.883,10.800,61.698,0.000,0.300,0.200,0.500,1.000,General,0.000,431.883,43.188,431.9,0.000,86.377,0.000,0.000,0.000,0.000
 Lights Internal Gains Nominal, BREAK_ROOM_0_LIGHTS,BREAK_ROOM_LIGHTING,BREAK_ROOM_0,69.74,6.0,564.929,8.100,94.155,0.000,0.300,0.200,0.500,1.000,General,0.000,564.929,56.493,564.9,0.000,112.986,0.000,0.000,0.000,0.000
 Lights Internal Gains Nominal, MECHANICAL_0_LIGHTS,MECHANICAL_LIGHTING,MECHANICAL_0,56.01,1.0,302.438,5.400,302.438,0.000,0.300,0.200,0.500,1.000,General,0.000,302.438,30.244,302.4,0.000,60.488,0.000,0.000,0.000,0.000
 Lights Internal Gains Nominal, OFFICE_OPEN_0_LIGHTS,OFFICE_OPEN_LIGHTING,OFFICE_OPEN_0,382.71,19.0,4133.276,10.800,217.541,0.000,0.300,0.200,0.500,1.000,General,0.000,4133.276,413.328,4133.3,0.000,826.655,0.000,0.000,0.000,0.000
 Lights Internal Gains Nominal, OFFICE_PRIVATE_0_LIGHTS,OFFICE_OPEN_LIGHTING,OFFICE_PRIVATE_0,16.06,1.0,173.477,10.800,173.477,0.000,0.300,0.200,0.500,1.000,General,0.000,173.477,17.348,173.5,0.000,34.695,0.000,0.000,0.000,0.000
 Lights Internal Gains Nominal, STORAGE_0_LIGHTS,STORAGE_LIGHTING,STORAGE_0,12.16,1.0,65.659,5.400,65.659,0.000,0.300,0.200,0.500,1.000,General,0.000,65.659,6.566,65.7,0.000,13.132,0.000,0.000,0.000,0.000
 Lights Internal Gains Nominal, BREAK_ROOM_1_LIGHTS,BREAK_ROOM_LIGHTING,BREAK_ROOM_1,39.28,3.0,318.156,8.100,106.052,0.000,0.300,0.200,0.500,1.000,General,0.000,318.156,31.816,318.2,0.000,63.631,0.000,0.000,0.000,0.000
 Lights Internal Gains Nominal, MECHANICAL_1_LIGHTS,MECHANICAL_LIGHTING,MECHANICAL_1,52.70,1.0,284.571,5.400,284.571,0.000,0.300,0.200,0.500,1.000,General,0.000,284.571,28.457,284.6,0.000,56.914,0.000,0.000,0.000,0.000
 Lights Internal Gains Nominal, OFFICE_OPEN_1_LIGHTS,OFFICE_OPEN_LIGHTING,OFFICE_OPEN_1,390.76,19.0,4220.216,10.800,222.117,0.000,0.300,0.200,0.500,1.000,General,0.000,4220.216,422.022,4220.2,0.000,844.043,0.000,0.000,0.000,0.000
 Lights Internal Gains Nominal, STORAGE_1_LIGHTS,STORAGE_LIGHTING,STORAGE_1,42.99,1.0,232.170,5.400,232.170,0.000,0.300,0.200,0.500,1.000,General,0.000,232.170,23.217,232.2,0.000,46.434,0.000,0.000,0.000,0.000
 Lights Internal Gains Nominal, LOBBY_2_LIGHTS,LOBBY_LIGHTING,LOBBY_2,68.01,3.0,877.343,12.900,292.448,0.000,0.300,0.200,0.500,1.000,General,0.000,877.343,87.734,877.3,0.000,175.469,0.000,0.000,0.000,0.000
 Lights Internal Gains Nominal, BREAK_ROOM_2_LIGHTS,BREAK_ROOM_LIGHTING,BREAK_ROOM_2,39.88,3.0,323.013,8.100,107.671,0.000,0.300,0.200,0.500,1.000,General,0.000,323.013,32.301,323.0,0.000,64.603,0.000,0.000,0.000,0.000
 Lights Internal Gains Nominal, MECHANICAL_2_LIGHTS,MECHANICAL_LIGHTING,MECHANICAL_2,32.10,1.0,173.334,5.400,173.334,0.000,0.300,0.200,0.500,1.000,General,0.000,173.334,17.333,173.3,0.000,34.667,0.000,0.000,0.000,0.000
 Lights Internal Gains Nominal, OFFICE_OPEN_2_LIGHTS,OFFICE_OPEN_LIGHTING,OFFICE_OPEN_2,467.58,23.0,5049.915,10.800,219.562,0.000,0.300,0.200,0.500,1.000,General,0.000,5049.915,504.992,5049.9,0.000,1009.983,0.000,0.000,0.000,0.000
 Lights Internal Gains Nominal, OFFICE_PRIVATE_2_LIGHTS,OFFICE_OPEN_LIGHTING,OFFICE_PRIVATE_2,48.23,2.0,520.918,10.800,260.459,0.000,0.300,0.200,0.500,1.000,General,0.000,520.918,52.092,520.9,0.000,104.184,0.000,0.000,0.000,0.000
 Lights Internal Gains Nominal, STORAGE_2_LIGHTS,STORAGE_LIGHTING,STORAGE_2,28.92,1.0,156.168,5.400,156.168,0.000,0.300,0.200,0.500,1.000,General,0.000,156.168,15.617,156.2,0.000,31.234,0.000,0.000,0.000,0.000
 Lights Internal Gains Nominal, LOBBY_3_LIGHTS,LOBBY_LIGHTING,LOBBY_3,154.68,7.0,1995.409,12.900,285.058,0.000,0.300,0.200,0.500,1.000,General,0.000,1995.409,199.541,1995.4,0.000,399.082,0.000,0.000,0.000,0.000
 Lights Internal Gains Nominal, CONFERENCE_3_LIGHTS,CONFERENCE_LIGHTING,CONFERENCE_3,85.00,16.0,917.958,10.800,57.372,0.000,0.300,0.200,0.500,1.000,General,0.000,917.958,91.796,918.0,0.000,183.592,0.000,0.000,0.000,0.000
 Lights Internal Gains Nominal, MECHANICAL_3_LIGHTS,MECHANICAL_LIGHTING,MECHANICAL_3,21.71,1.0,117.220,5.400,117.220,0.000,0.300,0.200,0.500,1.000,General,0.000,117.220,11.722,117.2,0.000,23.444,0.000,0.000,0.000,0.000
 Lights Internal Gains Nominal, STORAGE_3_LIGHTS,STORAGE_LIGHTING,STORAGE_3,22.65,1.0,122.302,5.400,122.302,0.000,0.300,0.200,0.500,1.000,General,0.000,122.302,12.230,122.3,0.000,24.460,0.000,0.000,0.000,0.000
 Lights Internal Gains Nominal, LOBBY_4_LIGHTS,LOBBY_LIGHTING,LOBBY_4,108.10,5.0,1394.534,12.900,278.907,0.000,0.300,0.200,0.500,1.000,General,0.000,1394.534,139.453,1394.5,0.000,278.907,0.000,0.000,0.000,0.000
 Lights Internal Gains Nominal, CONFERENCE_4_LIGHTS,CONFERENCE_LIGHTING,CONFERENCE_4,88.97,17.0,960.845,10.800,56.520,0.000,0.300,0.200,0.500,1.000,General,0.000,960.845,96.084,960.8,0.000,192.169,0.000,0.000,0.000,0.000
 Lights Internal Gains Nominal, BREAK_ROOM_4_LIGHTS,BREAK_ROOM_LIGHTING,BREAK_ROOM_4,46.58,4.0,377.280,8.100,94.320,0.000,0.300,0.200,0.500,1.000,General,0.000,377.280,37.728,377.3,0.000,75.456,0.000,0.000,0.000,0.000
 Lights Internal Gains Nominal, MECHANICAL_4_LIGHTS,MECHANICAL_LIGHTING,MECHANICAL_4,34.13,1.0,184.280,5.400,184.280,0.000,0.300,0.200,0.500,1.000,General,0.000,184.280,18.428,184.3,0.000,36.856,0.000,0.000,0.000,0.000
 Lights Internal Gains Nominal, OFFICE_PRIVATE_4_LIGHTS,OFFICE_OPEN_LIGHTING,OFFICE_PRIVATE_4,48.89,2.0,528.064,10.800,264.032,0.000,0.300,0.200,0.500,1.000,General,0.000,528.064,52.806,528.1,0.000,105.613,0.000,0.000,0.000,0.000
 Lights Internal Gains Nominal, STORAGE_4_LIGHTS,STORAGE_LIGHTING,STORAGE_4,21.17,1.0,114.300,5.400,114.300,0.000,0.300,0.200,0.500,1.000,General,0.000,114.300,11.430,114.3,0.000,22.860,0.000,0.000,0.000,0.000
! <ElectricEquipment Internal Gains Nominal>,Name,Schedule Name,Zone Name,Zone Floor Area {m2},# Zone Occupants,Equipment Level {W},Equipment/Floor Area {W/m2},Equipment per person {W/person},Fraction Latent,Fraction Radiant,Fraction Lost,Fraction Convected,End-Use SubCategory,Minimum Equipment Level for All Day Types {W},Maximum Equipment Level for All Day Types {W},Minimum Equipment Level for Weekdays {W}, Maximum Equipment Level for Weekdays {W},Minimum Equipment Level for Weekends/Holidays {W}, Maximum Equipment Level for Weekends /Holidays {W},Minimum Equipment Level for Summer Design Days {W}, Maximum Equipment Level for Summer Design Days {W},Minimum Equipment Level for Winter Design Days {W}, Maximum Equipment Level for Winter Design Days {W}
 ElectricEquipment Internal Gains Nominal, LOBBY_0_EQUIPMENT,LOBBY_EQUIPMENT,LOBBY_0,172.99,8.0,553.581,3.200,69.198,0.100,0.200,0.000,0.700,General,0.000,442.865,166.074,442.865,0.000,166.074,0.000,0.000,0.000,0.000
 ElectricEquipment Internal Gains Nominal, CONFERENCE_0_EQUIPMENT,CONFERENCE_EQUIPMENT,CONFERENCE_0,39.99,7.0,323.912,8.100,46.273,0.100,0.200,0.000,0.700,General,0.000,259.130,97.174,259.130,0.000,97.174,0.000,0.000,0.000,0.000
 ElectricEquipment Internal Gains Nominal, BREAK_ROOM_0_EQUIPMENT,BREAK_ROOM_EQUIPMENT,BREAK_ROOM_0,69.74,6.0,1046.165,15.000,174.361,0.100,0.200,0.000,0.700,General,0.000,836.932,313.850,836.932,0.000,313.850,0.000,0.000,0.000,0.000
 ElectricEquipment Internal Gains Nominal, MECHANICAL_0_EQUIPMENT,MECHANICAL_EQUIPMENT,MECHANICAL_0,56.01,1.0,0.000,0.000,0.000,0.100,0.200,0.000,0.700,General,0.000,0.000,0.000,0.000,0.000,0.000,0.000,0.000,0.000,0.000
 ElectricEquipment Internal Gains Nominal, OFFICE_OPEN_0_EQUIPMENT,OFFICE_OPEN_EQUIPMENT,OFFICE_OPEN_0,382.71,19.0,3099.957,8.100,163.156,0.100,0.200,0.000,0.700,General,0.000,2479.966,929.987,2479.966,0.000,929.987,0.000,0.000,0.000,0.000
 ElectricEquipment Internal Gains Nominal, OFFICE_PRIVATE_0_EQUIPMENT,OFFICE_OPEN_EQUIPMENT,OFFICE_PRIVATE_0,16.06,1.0,130.107,8.100,130.107,0.100,0.200,0.000,0.700,General,0.000,104.086,39.032,104.086,0.000,39.032,0.000,0.000,0.000,0.000
 ElectricEquipment Internal Gains Nominal, STORAGE_0_EQUIPMENT,STORAGE_EQUIPMENT,STORAGE_0,12.16,1.0,13.375,1.100,13.375,0.100,0.200,0.000,0.700,General,0.000,10.700,4.013,10.700,0.000,4.013,0.000,0.000,0.000,0.000
 ElectricEquipment Internal Gains Nominal, BREAK_ROOM_1_EQUIPMENT,BREAK_ROOM_EQUIPMENT,BREAK_ROOM_1,39.28,3.0,589.179,15.000,196.393,0.100,0.200,0.000,0.700,General,0.000,471.343,176.754,471.343,0.000,176.754,0.000,0.000,0.000,0.000
 ElectricEquipment Internal Gains Nominal, MECHANICAL_1_EQUIPMENT,MECHANICAL_EQUIPMENT,MECHANICAL_1,52.70,1.0,0.000,0.000,0.000,0.100,0.200,0.000,0.700,General,0.000,0.000,0.000,0.000,0.000,0.000,0.000,0.000,0.000,0.000
 ElectricEquipment Internal Gains Nominal, OFFICE_OPEN_1_EQUIPMENT,OFFICE_OPEN_EQUIPMENT,OFFICE_OPEN_1,390.76,19.0,3165.162,8.100,166.587,0.100,0.200,0.000,0.700,General,0.000,2532.130,949.549,2532.130,0.000,949.549,0.000,0.000,0.000,0.000
 ElectricEquipment Internal Gains Nominal, STORAGE_1_EQUIPMENT,STORAGE_EQUIPMENT,STORAGE_1,42.99,1.0,47.294,1.100,47.294,0.100,0.200,0.000,0.700,General,0.000,37.835,14.188,37.835,0.000,14.188,0.000,0.000,0.000,0.000
 ElectricEquipment Internal Gains Nominal, LOBBY_2_EQUIPMENT,LOBBY_EQUIPMENT,LOBBY_2,68.01,3.0,217.635,3.200,72.545,0.100,0.200,0.000,0.700,General,0.000,174.108,65.291,174.108,0.000,65.291,0.000,0.000,0.000,0.000
 ElectricEquipment Internal Gains Nominal, BREAK_ROOM_2_EQUIPMENT,BREAK_ROOM_EQUIPMENT,BREAK_ROOM_2,39.88,3.0,598.172,15.000,199.391,0.100,0.200,0.000,0.700,General,0.000,478.537,179.452,478.537,0.000,179.452,0.000,0.000,0.000,0.000
 ElectricEquipment Internal Gains Nominal, MECHANICAL_2_EQUIPMENT,MECHANICAL_EQUIPMENT,MECHANICAL_2,32.10,1.0,0.000,0.000,0.000,0.100,0.200,0.000,0.700,General,0.000,0.000,0.000,0.000,0.000,0.000,0.000,0.000,0.000,0.000
 ElectricEquipment Internal Gains Nominal, OFFICE_OPEN_2_EQUIPMENT,OFFICE_OPEN_EQUIPMENT,OFFICE_OPEN_2,467.58,23.0,3787.436,8.100,164.671,0.100,0.200,0.000,0.700,General,0.000,3029.949,1136.231,3029.949,0.000,1136.231,0.000,0.000,0.000,0.000
 ElectricEquipment Internal Gains Nominal, OFFICE_PRIVATE_2_EQUIPMENT,OFFICE_OPEN_EQUIPMENT,OFFICE_PRIVATE_2,48.23,2.0,390.689,8.100,195.344,0.100,0.200,0.000,0.700,General,0.000,312.551,117.207,312.551,0.000,117.207,0.000,0.000,0.000,0.000
 ElectricEquipment Internal Gains Nominal, STORAGE_2_EQUIPMENT,STORAGE_EQUIPMENT,STORAGE_2,28.92,1.0,31.812,1.100,31.812,0.100,0.200,0.000,0.700,General,0.000,25.450,9.544,25.450,0.000,9.544,0.000,0.000,0.000,0.000
 ElectricEquipment Internal Gains Nominal, LOBBY_3_EQUIPMENT,LOBBY_EQUIPMENT,LOBBY_3,154.68,7.0,494.985,3.200,70.712,0.100,0.200,0.000,0.700,General,0.000,395.988,148.496,395.988,0.000,148.496,0.000,0.000,0.000,0.000
 ElectricEquipment Internal Gains Nominal, CONFERENCE_3_EQUIPMENT,CONFERENCE_EQUIPMENT,CONFERENCE_3,85.00,16.0,688.468,8.100,43.029,0.100,0.200,0.000,0.700,General,0.000,550.775,206.540,550.775,0.000,206.540,0.000,0.000,0.000,0.000
 ElectricEquipment Internal Gains Nominal, MECHANICAL_3_EQUIPMENT,MECHANICAL_EQUIPMENT,MECHANICAL_3,21.71,1.0,0.000,0.000,0.000,0.100,0.200,0.000,0.700,General,0.000,0.000,0.000,0.000,0.000,0.000,0.000,0.000,0.000,0.000
 ElectricEquipment Internal Gains Nominal, STORAGE_3_EQUIPMENT,STORAGE_EQUIPMENT,STORAGE_3,22.65,1.0,24.913,1.100,24.913,0.100,0.200,0.000,0.700,General,0.000,19.931,7.474,19.931,0.000,7.474,0.000,0.000,0.000,0.000
 ElectricEquipment Internal Gains Nominal, LOBBY_4_EQUIPMENT,LOBBY_EQUIPMENT,LOBBY_4,108.10,5.0,345.931,3.200,69.186,0.100,0.200,0.000,0.700,General,0.000,276.745,103.779,276.745,0.000,103.779,0.000,0.000,0.000,0.000
 ElectricEquipment Internal Gains Nominal, CONFERENCE_4_EQUIPMENT,CONFERENCE_EQUIPMENT,CONFERENCE_4,88.97,17.0,720.633,8.100,42.390,0.100,0.200,0.000,0.700,General,0.000,576.507,216.190,576.507,0.000,216.190,0.000,0.000,0.000,0.000
 ElectricEquipment Internal Gains Nominal, BREAK_ROOM_4_EQUIPMENT,BREAK_ROOM_EQUIPMENT,BREAK_ROOM_4,46.58,4.0,698.667,15.000,174.667,0.100,0.200,0.000,0.700,General,0.000,558.933,209.600,558.933,0.000,209.600,0.000,0.000,0.000,0.000
 ElectricEquipment Internal Gains Nominal, MECHANICAL_4_EQUIPMENT,MECHANICAL_EQUIPMENT,MECHANICAL_4,34.13,1.0,0.000,0.000,0.000,0.100,0.200,0.000,0.700,General,0.000,0.000,0.000,0.000,0.000,0.000,0.000,0.000,0.000,0.000
 ElectricEquipment Internal Gains Nominal, OFFICE_PRIVATE_4_EQUIPMENT,OFFICE_OPEN_EQUIPMENT,OFFICE_PRIVATE_4,48.89,2.0,396.048,8.100,198.024,0.100,0.200,0.000,0.700,General,0.000,316.838,118.814,316.838,0.000,118.814,0.000,0.000,0.000,0.000
 ElectricEquipment Internal Gains Nominal, STORAGE_4_EQUIPMENT,STORAGE_EQUIPMENT,STORAGE_4,21.17,1.0,23.283,1.100,23.283,0.100,0.200,0.000,0.700,General,0.000,18.627,6.985,18.627,0.000,6.985,0.000,0.000,0.000,0.000
! <Enclosure/Window Adjacency Daylighting Counts>, Enclosure Name, Number of Exterior Windows, Number of Exterior Windows in Adjacent Enclosures
Enclosure/Window Adjacency Daylighting Counts, LOBBY_0,4,0
Enclosure/Window Adjacency Daylighting Counts, CONFERENCE_0,4,0
Enclosure/Window Adjacency Daylighting Counts, BREAK_ROOM_0,4,0
Enclosure/Window Adjacency Daylighting Counts, OFFICE_OPEN_0,4,0
Enclosure/Window Adjacency Daylighting Counts, OFFICE_PRIVATE_0,4,0
Enclosure/Window Adjacency Daylighting Counts, BREAK_ROOM_1,4,0
Enclosure/Window Adjacency Daylighting Counts, OFFICE_OPEN_1,4,0
Enclosure/Window Adjacency Daylighting Counts, LOBBY_2,4,0
Enclosure/Window Adjacency Daylighting Counts, BREAK_ROOM_2,4,0
Enclosure/Window Adjacency Daylighting Counts, OFFICE_OPEN_2,4,0
Enclosure/Window Adjacency Daylighting Counts, OFFICE_PRIVATE_2,4,0
Enclosure/Window Adjacency Daylighting Counts, LOBBY_3,4,0
Enclosure/Window Adjacency Daylighting Counts, CONFERENCE_3,4,0
Enclosure/Window Adjacency Daylighting Counts, LOBBY_4,4,0
Enclosure/Window Adjacency Daylighting Counts, CONFERENCE_4,4,0
Enclosure/Window Adjacency Daylighting Counts, BREAK_ROOM_4,4,0
Enclosure/Window Adjacency Daylighting Counts, OFFICE_PRIVATE_4,4,0
! <Enclosure/Window Adjacency Daylighting Matrix>, Enclosure Name, Number of Adjacent Enclosures with Windows,Adjacent Enclosure Names - 1st 100 (max)
Enclosure/Window Adjacency Daylighting Matrix, LOBBY_0,0
Enclosure/Window Adjacency Daylighting Matrix, CONFERENCE_0,0
Enclosure/Window Adjacency Daylighting Matrix, BREAK_ROOM_0,0
Enclosure/Window Adjacency Daylighting Matrix, OFFICE_OPEN_0,0
Enclosure/Window Adjacency Daylighting Matrix, OFFICE_PRIVATE_0,0
Enclosure/Window Adjacency Daylighting Matrix, BREAK_ROOM_1,0
Enclosure/Window Adjacency Daylighting Matrix, OFFICE_OPEN_1,0
Enclosure/Window Adjacency Daylighting Matrix, LOBBY_2,0
Enclosure/Window Adjacency Daylighting Matrix, BREAK_ROOM_2,0
Enclosure/Window Adjacency Daylighting Matrix, OFFICE_OPEN_2,0
Enclosure/Window Adjacency Daylighting Matrix, OFFICE_PRIVATE_2,0
Enclosure/Window Adjacency Daylighting Matrix, LOBBY_3,0
Enclosure/Window Adjacency Daylighting Matrix, CONFERENCE_3,0
Enclosure/Window Adjacency Daylighting Matrix, LOBBY_4,0
Enclosure/Window Adjacency Daylighting Matrix, CONFERENCE_4,0
Enclosure/Window Adjacency Daylighting Matrix, BREAK_ROOM_4,0
Enclosure/Window Adjacency Daylighting Matrix, OFFICE_PRIVATE_4,0
! <ZoneInfiltration Airflow Stats Nominal>,Name,Schedule Name,Zone Name, Zone Floor Area {m2}, # Zone Occupants,Design Volume Flow Rate {m3/s},Volume Flow Rate/Floor Area {m3/s-m2},Volume Flow Rate/Exterior Surface Area {m3/s-m2},ACH - Air Changes per Hour,Equation A - Constant Term Coefficient {},Equation B - Temperature Term Coefficient {1/C},Equation C - Velocity Term Coefficient {s/m}, Equation D - Velocity Squared Term Coefficient {s2/m2}
 ZoneInfiltration Airflow Stats Nominal, LOBBY_0_INFILTRATION,LOBBY_0_INFILTRATION_SCHEDULE,LOBBY_0,172.99,8.0,0.000,0.000,0.000,0.000,0.000,0.000,0.000,0.000
 ZoneInfiltration Airflow Stats Nominal, CONFERENCE_0_INFILTRATION,CONFERENCE_0_INFILTRATION_SCHEDULE,CONFERENCE_0,39.99,7.0,0.000,0.000,0.000,0.000,0.000,0.000,0.000,0.000
 ZoneInfiltration Airflow Stats Nominal, BREAK_ROOM_0_INFILTRATION,BREAK_ROOM_0_INFILTRATION_SCHEDULE,BREAK_ROOM_0,69.74,6.0,0.000,0.000,0.000,0.000,0.000,0.000,0.000,0.000
 ZoneInfiltration Airflow Stats Nominal, MECHANICAL_0_INFILTRATION,MECHANICAL_0_INFILTRATION_SCHEDULE,MECHANICAL_0,56.01,1.0,0.000,0.000,0.000,0.000,0.000,0.000,0.000,0.000
 ZoneInfiltration Airflow Stats Nominal, OFFICE_OPEN_0_INFILTRATION,OFFICE_OPEN_0_INFILTRATION_SCHEDULE,OFFICE_OPEN_0,382.71,19.0,0.000,0.000,0.000,0.000,0.000,0.000,0.000,0.000
 ZoneInfiltration Airflow Stats Nominal, OFFICE_PRIVATE_0_INFILTRATION,OFFICE_PRIVATE_0_INFILTRATION_SCHEDULE,OFFICE_PRIVATE_0,16.06,1.0,0.000,0.000,0.000,0.000,0.000,0.000,0.000,0.000
 ZoneInfiltration Airflow Stats Nominal, STORAGE_0_INFILTRATION,STORAGE_0_INFILTRATION_SCHEDULE,STORAGE_0,12.16,1.0,0.000,0.000,0.000,0.000,0.000,0.000,0.000,0.000
 ZoneInfiltration Airflow Stats Nominal, BREAK_ROOM_1_INFILTRATION,BREAK_ROOM_1_INFILTRATION_SCHEDULE,BREAK_ROOM_1,39.28,3.0,0.000,0.000,0.000,0.000,0.000,0.000,0.000,0.000
 ZoneInfiltration Airflow Stats Nominal, MECHANICAL_1_INFILTRATION,MECHANICAL_1_INFILTRATION_SCHEDULE,MECHANICAL_1,52.70,1.0,0.000,0.000,0.000,0.000,0.000,0.000,0.000,0.000
 ZoneInfiltration Airflow Stats Nominal, OFFICE_OPEN_1_INFILTRATION,OFFICE_OPEN_1_INFILTRATION_SCHEDULE,OFFICE_OPEN_1,390.76,19.0,0.000,0.000,0.000,0.000,0.000,0.000,0.000,0.000
 ZoneInfiltration Airflow Stats Nominal, STORAGE_1_INFILTRATION,STORAGE_1_INFILTRATION_SCHEDULE,STORAGE_1,42.99,1.0,0.000,0.000,0.000,0.000,0.000,0.000,0.000,0.000
 ZoneInfiltration Airflow Stats Nominal, LOBBY_2_INFILTRATION,LOBBY_2_INFILTRATION_SCHEDULE,LOBBY_2,68.01,3.0,0.000,0.000,0.000,0.000,0.000,0.000,0.000,0.000
 ZoneInfiltration Airflow Stats Nominal, BREAK_ROOM_2_INFILTRATION,BREAK_ROOM_2_INFILTRATION_SCHEDULE,BREAK_ROOM_2,39.88,3.0,0.000,0.000,0.000,0.000,0.000,0.000,0.000,0.000
 ZoneInfiltration Airflow Stats Nominal, MECHANICAL_2_INFILTRATION,MECHANICAL_2_INFILTRATION_SCHEDULE,MECHANICAL_2,32.10,1.0,0.000,0.000,0.000,0.000,0.000,0.000,0.000,0.000
 ZoneInfiltration Airflow Stats Nominal, OFFICE_OPEN_2_INFILTRATION,OFFICE_OPEN_2_INFILTRATION_SCHEDULE,OFFICE_OPEN_2,467.58,23.0,0.000,0.000,0.000,0.000,0.000,0.000,0.000,0.000
 ZoneInfiltration Airflow Stats Nominal, OFFICE_PRIVATE_2_INFILTRATION,OFFICE_PRIVATE_2_INFILTRATION_SCHEDULE,OFFICE_PRIVATE_2,48.23,2.0,0.000,0.000,0.000,0.000,0.000,0.000,0.000,0.000
 ZoneInfiltration Airflow Stats Nominal, STORAGE_2_INFILTRATION,STORAGE_2_INFILTRATION_SCHEDULE,STORAGE_2,28.92,1.0,0.000,0.000,0.000,0.000,0.000,0.000,0.000,0.000
 ZoneInfiltration Airflow Stats Nominal, LOBBY_3_INFILTRATION,LOBBY_3_INFILTRATION_SCHEDULE,LOBBY_3,154.68,7.0,0.000,0.000,0.000,0.000,0.000,0.000,0.000,0.000
 ZoneInfiltration Airflow Stats Nominal, CONFERENCE_3_INFILTRATION,CONFERENCE_3_INFILTRATION_SCHEDULE,CONFERENCE_3,85.00,16.0,0.000,0.000,0.000,0.000,0.000,0.000,0.000,0.000
 ZoneInfiltration Airflow Stats Nominal, MECHANICAL_3_INFILTRATION,MECHANICAL_3_INFILTRATION_SCHEDULE,MECHANICAL_3,21.71,1.0,0.000,0.000,0.000,0.000,0.000,0.000,0.000,0.000
 ZoneInfiltration Airflow Stats Nominal, STORAGE_3_INFILTRATION,STORAGE_3_INFILTRATION_SCHEDULE,STORAGE_3,22.65,1.0,0.000,0.000,0.000,0.000,0.000,0.000,0.000,0.000
 ZoneInfiltration Airflow Stats Nominal, LOBBY_4_INFILTRATION,LOBBY_4_INFILTRATION_SCHEDULE,LOBBY_4,108.10,5.0,0.000,0.000,0.000,0.000,0.000,0.000,0.000,0.000
 ZoneInfiltration Airflow Stats Nominal, CONFERENCE_4_INFILTRATION,CONFERENCE_4_INFILTRATION_SCHEDULE,CONFERENCE_4,88.97,17.0,0.000,0.000,0.000,0.000,0.000,0.000,0.000,0.000
 ZoneInfiltration Airflow Stats Nominal, BREAK_ROOM_4_INFILTRATION,BREAK_ROOM_4_INFILTRATION_SCHEDULE,BREAK_ROOM_4,46.58,4.0,0.000,0.000,0.000,0.000,0.000,0.000,0.000,0.000
 ZoneInfiltration Airflow Stats Nominal, MECHANICAL_4_INFILTRATION,MECHANICAL_4_INFILTRATION_SCHEDULE,MECHANICAL_4,34.13,1.0,0.000,0.000,0.000,0.000,0.000,0.000,0.000,0.000
 ZoneInfiltration Airflow Stats Nominal, OFFICE_PRIVATE_4_INFILTRATION,OFFICE_PRIVATE_4_INFILTRATION_SCHEDULE,OFFICE_PRIVATE_4,48.89,2.0,0.000,0.000,0.000,0.000,0.000,0.000,0.000,0.000
 ZoneInfiltration Airflow Stats Nominal, STORAGE_4_INFILTRATION,STORAGE_4_INFILTRATION_SCHEDULE,STORAGE_4,21.17,1.0,0.000,0.000,0.000,0.000,0.000,0.000,0.000,0.000
! <AirFlow Model>, Simple
 AirFlow Model, Simple
! <RoomAir Model>, Zone Name, Mixing/Mundt/UCSDDV/UCSDCV/UCSDUFI/UCSDUFE/User Defined
RoomAir Model,LOBBY_0,Mixing/Well-Stirred
RoomAir Model,CONFERENCE_0,Mixing/Well-Stirred
RoomAir Model,BREAK_ROOM_0,Mixing/Well-Stirred
RoomAir Model,MECHANICAL_0,Mixing/Well-Stirred
RoomAir Model,OFFICE_OPEN_0,Mixing/Well-Stirred
RoomAir Model,OFFICE_PRIVATE_0,Mixing/Well-Stirred
RoomAir Model,STORAGE_0,Mixing/Well-Stirred
RoomAir Model,BREAK_ROOM_1,Mixing/Well-Stirred
RoomAir Model,MECHANICAL_1,Mixing/Well-Stirred
RoomAir Model,OFFICE_OPEN_1,Mixing/Well-Stirred
RoomAir Model,STORAGE_1,Mixing/Well-Stirred
RoomAir Model,LOBBY_2,Mixing/Well-Stirred
RoomAir Model,BREAK_ROOM_2,Mixing/Well-Stirred
RoomAir Model,MECHANICAL_2,Mixing/Well-Stirred
RoomAir Model,OFFICE_OPEN_2,Mixing/Well-Stirred
RoomAir Model,OFFICE_PRIVATE_2,Mixing/Well-Stirred
RoomAir Model,STORAGE_2,Mixing/Well-Stirred
RoomAir Model,LOBBY_3,Mixing/Well-Stirred
RoomAir Model,CONFERENCE_3,Mixing/Well-Stirred
RoomAir Model,MECHANICAL_3,Mixing/Well-Stirred
RoomAir Model,STORAGE_3,Mixing/Well-Stirred
RoomAir Model,LOBBY_4,Mixing/Well-Stirred
RoomAir Model,CONFERENCE_4,Mixing/Well-Stirred
RoomAir Model,BREAK_ROOM_4,Mixing/Well-Stirred
RoomAir Model,MECHANICAL_4,Mixing/Well-Stirred
RoomAir Model,OFFICE_PRIVATE_4,Mixing/Well-Stirred
RoomAir Model,STORAGE_4,Mixing/Well-Stirred
! <AirflowNetwork Model:Control>, No Multizone or Distribution/Multizone with Distribution/Multizone without Distribution/Multizone with Distribution only during Fan Operation
AirflowNetwork Model:Control,NoMultizoneOrDistribution
! <Zone Volume Capacitance Multiplier>, Sensible Heat Capacity Multiplier, Moisture Capacity Multiplier, Carbon Dioxide Capacity Multiplier, Generic Contaminant Capacity Multiplier
Zone Volume Capacitance Multiplier,   1.000 ,   1.000,   1.000,   1.000
! <Component Sizing Information>, Component Type, Component Name, Input Field Description, Value
 Component Sizing Information, AirTerminal:SingleDuct:VAV:Reheat, LOBBY_0_Z1_VAVTERMINAL, User-Specified Maximum Air Flow Rate [m3/s], 0.86497
 Component Sizing Information, AirTerminal:SingleDuct:VAV:Reheat, LOBBY_0_Z1_VAVTERMINAL, Design Size Constant Minimum Air Flow Fraction, 0.20000
 Component Sizing Information, AirTerminal:SingleDuct:VAV:Reheat, LOBBY_0_Z1_VAVTERMINAL, User-Specified Constant Minimum Air Flow Fraction, 0.20000
 Component Sizing Information, AirTerminal:SingleDuct:VAV:Reheat, LOBBY_0_Z1_VAVTERMINAL, Design Size Minimum Air Flow Rate [m3/s], 0.17299
 Component Sizing Information, AirTerminal:SingleDuct:VAV:Reheat, LOBBY_0_Z1_VAVTERMINAL, Design Size Maximum Flow per Zone Floor Area during Reheat [m3/s-m2], 1.00000E-003
 Component Sizing Information, AirTerminal:SingleDuct:VAV:Reheat, LOBBY_0_Z1_VAVTERMINAL, Design Size Maximum Flow Fraction during Reheat [], 0.20000
 Component Sizing Information, AirTerminal:SingleDuct:VAV:Reheat, LOBBY_0_Z1_VAVTERMINAL, User-Specified Maximum Reheat Water Flow Rate [m3/s], 13.83959
 Component Sizing Information, Coil:Heating:Electric, LOBBY_0_Z1_REHEATCOIL, User-Specified Nominal Capacity [W], 4151.87797
 Component Sizing Information, AirTerminal:SingleDuct:VAV:Reheat, CONFERENCE_0_Z2_VAVTERMINAL, User-Specified Maximum Air Flow Rate [m3/s], 0.19995
 Component Sizing Information, AirTerminal:SingleDuct:VAV:Reheat, CONFERENCE_0_Z2_VAVTERMINAL, Design Size Constant Minimum Air Flow Fraction, 0.20000
 Component Sizing Information, AirTerminal:SingleDuct:VAV:Reheat, CONFERENCE_0_Z2_VAVTERMINAL, User-Specified Constant Minimum Air Flow Fraction, 0.20000
 Component Sizing Information, AirTerminal:SingleDuct:VAV:Reheat, CONFERENCE_0_Z2_VAVTERMINAL, Design Size Minimum Air Flow Rate [m3/s], 3.99897E-002
 Component Sizing Information, AirTerminal:SingleDuct:VAV:Reheat, CONFERENCE_0_Z2_VAVTERMINAL, Design Size Maximum Flow per Zone Floor Area during Reheat [m3/s-m2], 1.00001E-003
 Component Sizing Information, AirTerminal:SingleDuct:VAV:Reheat, CONFERENCE_0_Z2_VAVTERMINAL, Design Size Maximum Flow Fraction during Reheat [], 0.20000
 Component Sizing Information, AirTerminal:SingleDuct:VAV:Reheat, CONFERENCE_0_Z2_VAVTERMINAL, User-Specified Maximum Reheat Water Flow Rate [m3/s], 3.19918
 Component Sizing Information, Coil:Heating:Electric, CONFERENCE_0_Z2_REHEATCOIL, User-Specified Nominal Capacity [W], 959.75278
 Component Sizing Information, AirTerminal:SingleDuct:VAV:Reheat, BREAK_ROOM_0_Z3_VAVTERMINAL, User-Specified Maximum Air Flow Rate [m3/s], 0.34872
 Component Sizing Information, AirTerminal:SingleDuct:VAV:Reheat, BREAK_ROOM_0_Z3_VAVTERMINAL, Design Size Constant Minimum Air Flow Fraction, 0.20000
 Component Sizing Information, AirTerminal:SingleDuct:VAV:Reheat, BREAK_ROOM_0_Z3_VAVTERMINAL, User-Specified Constant Minimum Air Flow Fraction, 0.20000
 Component Sizing Information, AirTerminal:SingleDuct:VAV:Reheat, BREAK_ROOM_0_Z3_VAVTERMINAL, Design Size Minimum Air Flow Rate [m3/s], 6.97441E-002
 Component Sizing Information, AirTerminal:SingleDuct:VAV:Reheat, BREAK_ROOM_0_Z3_VAVTERMINAL, Design Size Maximum Flow per Zone Floor Area during Reheat [m3/s-m2], 9.99996E-004
 Component Sizing Information, AirTerminal:SingleDuct:VAV:Reheat, BREAK_ROOM_0_Z3_VAVTERMINAL, Design Size Maximum Flow Fraction during Reheat [], 0.20000
 Component Sizing Information, AirTerminal:SingleDuct:VAV:Reheat, BREAK_ROOM_0_Z3_VAVTERMINAL, User-Specified Maximum Reheat Water Flow Rate [m3/s], 5.57953
 Component Sizing Information, Coil:Heating:Electric, BREAK_ROOM_0_Z3_REHEATCOIL, User-Specified Nominal Capacity [W], 1673.85806
 Component Sizing Information, AirTerminal:SingleDuct:VAV:Reheat, MECHANICAL_0_Z4_VAVTERMINAL, User-Specified Maximum Air Flow Rate [m3/s], 0.28003
 Component Sizing Information, AirTerminal:SingleDuct:VAV:Reheat, MECHANICAL_0_Z4_VAVTERMINAL, Design Size Constant Minimum Air Flow Fraction, 0.20000
 Component Sizing Information, AirTerminal:SingleDuct:VAV:Reheat, MECHANICAL_0_Z4_VAVTERMINAL, User-Specified Constant Minimum Air Flow Fraction, 0.20000
 Component Sizing Information, AirTerminal:SingleDuct:VAV:Reheat, MECHANICAL_0_Z4_VAVTERMINAL, Design Size Minimum Air Flow Rate [m3/s], 5.60067E-002
 Component Sizing Information, AirTerminal:SingleDuct:VAV:Reheat, MECHANICAL_0_Z4_VAVTERMINAL, Design Size Maximum Flow per Zone Floor Area during Reheat [m3/s-m2], 9.99994E-004
 Component Sizing Information, AirTerminal:SingleDuct:VAV:Reheat, MECHANICAL_0_Z4_VAVTERMINAL, Design Size Maximum Flow Fraction during Reheat [], 0.20000
 Component Sizing Information, AirTerminal:SingleDuct:VAV:Reheat, MECHANICAL_0_Z4_VAVTERMINAL, User-Specified Maximum Reheat Water Flow Rate [m3/s], 4.48054
 Component Sizing Information, Coil:Heating:Electric, MECHANICAL_0_Z4_REHEATCOIL, User-Specified Nominal Capacity [W], 1344.16096
 Component Sizing Information, AirTerminal:SingleDuct:VAV:Reheat, OFFICE_OPEN_0_Z5_VAVTERMINAL, User-Specified Maximum Air Flow Rate [m3/s], 1.91355
 Component Sizing Information, AirTerminal:SingleDuct:VAV:Reheat, OFFICE_OPEN_0_Z5_VAVTERMINAL, Design Size Constant Minimum Air Flow Fraction, 0.20000
 Component Sizing Information, AirTerminal:SingleDuct:VAV:Reheat, OFFICE_OPEN_0_Z5_VAVTERMINAL, User-Specified Constant Minimum Air Flow Fraction, 0.20000
 Component Sizing Information, AirTerminal:SingleDuct:VAV:Reheat, OFFICE_OPEN_0_Z5_VAVTERMINAL, Design Size Minimum Air Flow Rate [m3/s], 0.38271
 Component Sizing Information, AirTerminal:SingleDuct:VAV:Reheat, OFFICE_OPEN_0_Z5_VAVTERMINAL, Design Size Maximum Flow per Zone Floor Area during Reheat [m3/s-m2], 9.99998E-004
 Component Sizing Information, AirTerminal:SingleDuct:VAV:Reheat, OFFICE_OPEN_0_Z5_VAVTERMINAL, Design Size Maximum Flow Fraction during Reheat [], 0.20000
 Component Sizing Information, AirTerminal:SingleDuct:VAV:Reheat, OFFICE_OPEN_0_Z5_VAVTERMINAL, User-Specified Maximum Reheat Water Flow Rate [m3/s], 30.61681
 Component Sizing Information, Coil:Heating:Electric, OFFICE_OPEN_0_Z5_REHEATCOIL, User-Specified Nominal Capacity [W], 9185.04254
 Component Sizing Information, AirTerminal:SingleDuct:VAV:Reheat, OFFICE_PRIVATE_0_Z6_VAVTERMINAL, User-Specified Maximum Air Flow Rate [m3/s], 8.03131E-002
 Component Sizing Information, AirTerminal:SingleDuct:VAV:Reheat, OFFICE_PRIVATE_0_Z6_VAVTERMINAL, Design Size Constant Minimum Air Flow Fraction, 0.20000
 Component Sizing Information, AirTerminal:SingleDuct:VAV:Reheat, OFFICE_PRIVATE_0_Z6_VAVTERMINAL, User-Specified Constant Minimum Air Flow Fraction, 0.20000
 Component Sizing Information, AirTerminal:SingleDuct:VAV:Reheat, OFFICE_PRIVATE_0_Z6_VAVTERMINAL, Design Size Minimum Air Flow Rate [m3/s], 1.60626E-002
 Component Sizing Information, AirTerminal:SingleDuct:VAV:Reheat, OFFICE_PRIVATE_0_Z6_VAVTERMINAL, Design Size Maximum Flow per Zone Floor Area during Reheat [m3/s-m2], 9.99999E-004
 Component Sizing Information, AirTerminal:SingleDuct:VAV:Reheat, OFFICE_PRIVATE_0_Z6_VAVTERMINAL, Design Size Maximum Flow Fraction during Reheat [], 0.20000
 Component Sizing Information, AirTerminal:SingleDuct:VAV:Reheat, OFFICE_PRIVATE_0_Z6_VAVTERMINAL, User-Specified Maximum Reheat Water Flow Rate [m3/s], 1.28501
 Component Sizing Information, Coil:Heating:Electric, OFFICE_PRIVATE_0_Z6_REHEATCOIL, User-Specified Nominal Capacity [W], 385.50310
 Component Sizing Information, AirTerminal:SingleDuct:VAV:Reheat, STORAGE_0_Z7_VAVTERMINAL, User-Specified Maximum Air Flow Rate [m3/s], 6.07978E-002
 Component Sizing Information, AirTerminal:SingleDuct:VAV:Reheat, STORAGE_0_Z7_VAVTERMINAL, Design Size Constant Minimum Air Flow Fraction, 0.20000
 Component Sizing Information, AirTerminal:SingleDuct:VAV:Reheat, STORAGE_0_Z7_VAVTERMINAL, User-Specified Constant Minimum Air Flow Fraction, 0.20000
 Component Sizing Information, AirTerminal:SingleDuct:VAV:Reheat, STORAGE_0_Z7_VAVTERMINAL, Design Size Minimum Air Flow Rate [m3/s], 1.21596E-002
 Component Sizing Information, AirTerminal:SingleDuct:VAV:Reheat, STORAGE_0_Z7_VAVTERMINAL, Design Size Maximum Flow per Zone Floor Area during Reheat [m3/s-m2], 1.00004E-003
 Component Sizing Information, AirTerminal:SingleDuct:VAV:Reheat, STORAGE_0_Z7_VAVTERMINAL, Design Size Maximum Flow Fraction during Reheat [], 0.20000
 Component Sizing Information, AirTerminal:SingleDuct:VAV:Reheat, STORAGE_0_Z7_VAVTERMINAL, User-Specified Maximum Reheat Water Flow Rate [m3/s], 0.97277
 Component Sizing Information, Coil:Heating:Electric, STORAGE_0_Z7_REHEATCOIL, User-Specified Nominal Capacity [W], 291.82956
 Component Sizing Information, AirTerminal:SingleDuct:VAV:Reheat, BREAK_ROOM_1_Z8_VAVTERMINAL, User-Specified Maximum Air Flow Rate [m3/s], 0.19639
 Component Sizing Information, AirTerminal:SingleDuct:VAV:Reheat, BREAK_ROOM_1_Z8_VAVTERMINAL, Design Size Constant Minimum Air Flow Fraction, 0.20000
 Component Sizing Information, AirTerminal:SingleDuct:VAV:Reheat, BREAK_ROOM_1_Z8_VAVTERMINAL, User-Specified Constant Minimum Air Flow Fraction, 0.20000
 Component Sizing Information, AirTerminal:SingleDuct:VAV:Reheat, BREAK_ROOM_1_Z8_VAVTERMINAL, Design Size Minimum Air Flow Rate [m3/s], 3.92790E-002
 Component Sizing Information, AirTerminal:SingleDuct:VAV:Reheat, BREAK_ROOM_1_Z8_VAVTERMINAL, Design Size Maximum Flow per Zone Floor Area during Reheat [m3/s-m2], 1.00001E-003
 Component Sizing Information, AirTerminal:SingleDuct:VAV:Reheat, BREAK_ROOM_1_Z8_VAVTERMINAL, Design Size Maximum Flow Fraction during Reheat [], 0.20000
 Component Sizing Information, AirTerminal:SingleDuct:VAV:Reheat, BREAK_ROOM_1_Z8_VAVTERMINAL, User-Specified Maximum Reheat Water Flow Rate [m3/s], 3.14232
 Component Sizing Information, Coil:Heating:Electric, BREAK_ROOM_1_Z8_REHEATCOIL, User-Specified Nominal Capacity [W], 942.69571
 Component Sizing Information, AirTerminal:SingleDuct:VAV:Reheat, MECHANICAL_1_Z9_VAVTERMINAL, User-Specified Maximum Air Flow Rate [m3/s], 0.26350
 Component Sizing Information, AirTerminal:SingleDuct:VAV:Reheat, MECHANICAL_1_Z9_VAVTERMINAL, Design Size Constant Minimum Air Flow Fraction, 0.20000
 Component Sizing Information, AirTerminal:SingleDuct:VAV:Reheat, MECHANICAL_1_Z9_VAVTERMINAL, User-Specified Constant Minimum Air Flow Fraction, 0.20000
 Component Sizing Information, AirTerminal:SingleDuct:VAV:Reheat, MECHANICAL_1_Z9_VAVTERMINAL, Design Size Minimum Air Flow Rate [m3/s], 5.26990E-002
 Component Sizing Information, AirTerminal:SingleDuct:VAV:Reheat, MECHANICAL_1_Z9_VAVTERMINAL, Design Size Maximum Flow per Zone Floor Area during Reheat [m3/s-m2], 1.00001E-003
 Component Sizing Information, AirTerminal:SingleDuct:VAV:Reheat, MECHANICAL_1_Z9_VAVTERMINAL, Design Size Maximum Flow Fraction during Reheat [], 0.20000
 Component Sizing Information, AirTerminal:SingleDuct:VAV:Reheat, MECHANICAL_1_Z9_VAVTERMINAL, User-Specified Maximum Reheat Water Flow Rate [m3/s], 4.21592
 Component Sizing Information, Coil:Heating:Electric, MECHANICAL_1_Z9_REHEATCOIL, User-Specified Nominal Capacity [W], 1264.77646
 Component Sizing Information, AirTerminal:SingleDuct:VAV:Reheat, OFFICE_OPEN_1_Z10_VAVTERMINAL, User-Specified Maximum Air Flow Rate [m3/s], 1.95382
 Component Sizing Information, AirTerminal:SingleDuct:VAV:Reheat, OFFICE_OPEN_1_Z10_VAVTERMINAL, Design Size Constant Minimum Air Flow Fraction, 0.20000
 Component Sizing Information, AirTerminal:SingleDuct:VAV:Reheat, OFFICE_OPEN_1_Z10_VAVTERMINAL, User-Specified Constant Minimum Air Flow Fraction, 0.20000
 Component Sizing Information, AirTerminal:SingleDuct:VAV:Reheat, OFFICE_OPEN_1_Z10_VAVTERMINAL, Design Size Minimum Air Flow Rate [m3/s], 0.39076
 Component Sizing Information, AirTerminal:SingleDuct:VAV:Reheat, OFFICE_OPEN_1_Z10_VAVTERMINAL, Design Size Maximum Flow per Zone Floor Area during Reheat [m3/s-m2], 1.00001E-003
 Component Sizing Information, AirTerminal:SingleDuct:VAV:Reheat, OFFICE_OPEN_1_Z10_VAVTERMINAL, Design Size Maximum Flow Fraction during Reheat [], 0.20000
 Component Sizing Information, AirTerminal:SingleDuct:VAV:Reheat, OFFICE_OPEN_1_Z10_VAVTERMINAL, User-Specified Maximum Reheat Water Flow Rate [m3/s], 31.26105
 Component Sizing Information, Coil:Heating:Electric, OFFICE_OPEN_1_Z10_REHEATCOIL, User-Specified Nominal Capacity [W], 9378.31624
 Component Sizing Information, AirTerminal:SingleDuct:VAV:Reheat, STORAGE_1_Z11_VAVTERMINAL, User-Specified Maximum Air Flow Rate [m3/s], 0.21497
 Component Sizing Information, AirTerminal:SingleDuct:VAV:Reheat, STORAGE_1_Z11_VAVTERMINAL, Design Size Constant Minimum Air Flow Fraction, 0.20000
 Component Sizing Information, AirTerminal:SingleDuct:VAV:Reheat, STORAGE_1_Z11_VAVTERMINAL, User-Specified Constant Minimum Air Flow Fraction, 0.20000
 Component Sizing Information, AirTerminal:SingleDuct:VAV:Reheat, STORAGE_1_Z11_VAVTERMINAL, Design Size Minimum Air Flow Rate [m3/s], 4.29944E-002
 Component Sizing Information, AirTerminal:SingleDuct:VAV:Reheat, STORAGE_1_Z11_VAVTERMINAL, Design Size Maximum Flow per Zone Floor Area during Reheat [m3/s-m2], 9.99999E-004
 Component Sizing Information, AirTerminal:SingleDuct:VAV:Reheat, STORAGE_1_Z11_VAVTERMINAL, Design Size Maximum Flow Fraction during Reheat [], 0.20000
 Component Sizing Information, AirTerminal:SingleDuct:VAV:Reheat, STORAGE_1_Z11_VAVTERMINAL, User-Specified Maximum Reheat Water Flow Rate [m3/s], 3.43955
 Component Sizing Information, Coil:Heating:Electric, STORAGE_1_Z11_REHEATCOIL, User-Specified Nominal Capacity [W], 1031.86617
 Component Sizing Information, AirTerminal:SingleDuct:VAV:Reheat, LOBBY_2_Z12_VAVTERMINAL, User-Specified Maximum Air Flow Rate [m3/s], 0.34006
 Component Sizing Information, AirTerminal:SingleDuct:VAV:Reheat, LOBBY_2_Z12_VAVTERMINAL, Design Size Constant Minimum Air Flow Fraction, 0.20000
 Component Sizing Information, AirTerminal:SingleDuct:VAV:Reheat, LOBBY_2_Z12_VAVTERMINAL, User-Specified Constant Minimum Air Flow Fraction, 0.20000
 Component Sizing Information, AirTerminal:SingleDuct:VAV:Reheat, LOBBY_2_Z12_VAVTERMINAL, Design Size Minimum Air Flow Rate [m3/s], 6.80113E-002
 Component Sizing Information, AirTerminal:SingleDuct:VAV:Reheat, LOBBY_2_Z12_VAVTERMINAL, Design Size Maximum Flow per Zone Floor Area during Reheat [m3/s-m2], 1.00000E-003
 Component Sizing Information, AirTerminal:SingleDuct:VAV:Reheat, LOBBY_2_Z12_VAVTERMINAL, Design Size Maximum Flow Fraction during Reheat [], 0.20000
 Component Sizing Information, AirTerminal:SingleDuct:VAV:Reheat, LOBBY_2_Z12_VAVTERMINAL, User-Specified Maximum Reheat Water Flow Rate [m3/s], 5.44091
 Component Sizing Information, Coil:Heating:Electric, LOBBY_2_Z12_REHEATCOIL, User-Specified Nominal Capacity [W], 1632.27219
 Component Sizing Information, AirTerminal:SingleDuct:VAV:Reheat, BREAK_ROOM_2_Z13_VAVTERMINAL, User-Specified Maximum Air Flow Rate [m3/s], 0.19939
 Component Sizing Information, AirTerminal:SingleDuct:VAV:Reheat, BREAK_ROOM_2_Z13_VAVTERMINAL, Design Size Constant Minimum Air Flow Fraction, 0.20000
 Component Sizing Information, AirTerminal:SingleDuct:VAV:Reheat, BREAK_ROOM_2_Z13_VAVTERMINAL, User-Specified Constant Minimum Air Flow Fraction, 0.20000
 Component Sizing Information, AirTerminal:SingleDuct:VAV:Reheat, BREAK_ROOM_2_Z13_VAVTERMINAL, Design Size Minimum Air Flow Rate [m3/s], 3.98776E-002
 Component Sizing Information, AirTerminal:SingleDuct:VAV:Reheat, BREAK_ROOM_2_Z13_VAVTERMINAL, Design Size Maximum Flow per Zone Floor Area during Reheat [m3/s-m2], 9.99986E-004
 Component Sizing Information, AirTerminal:SingleDuct:VAV:Reheat, BREAK_ROOM_2_Z13_VAVTERMINAL, Design Size Maximum Flow Fraction during Reheat [], 0.20000
 Component Sizing Information, AirTerminal:SingleDuct:VAV:Reheat, BREAK_ROOM_2_Z13_VAVTERMINAL, User-Specified Maximum Reheat Water Flow Rate [m3/s], 3.19021
 Component Sizing Information, Coil:Heating:Electric, BREAK_ROOM_2_Z13_REHEATCOIL, User-Specified Nominal Capacity [W], 957.06155
 Component Sizing Information, AirTerminal:SingleDuct:VAV:Reheat, MECHANICAL_2_Z14_VAVTERMINAL, User-Specified Maximum Air Flow Rate [m3/s], 0.16050
 Component Sizing Information, AirTerminal:SingleDuct:VAV:Reheat, MECHANICAL_2_Z14_VAVTERMINAL, Design Size Constant Minimum Air Flow Fraction, 0.20000
 Component Sizing Information, AirTerminal:SingleDuct:VAV:Reheat, MECHANICAL_2_Z14_VAVTERMINAL, User-Specified Constant Minimum Air Flow Fraction, 0.20000
 Component Sizing Information, AirTerminal:SingleDuct:VAV:Reheat, MECHANICAL_2_Z14_VAVTERMINAL, Design Size Minimum Air Flow Rate [m3/s], 3.20993E-002
 Component Sizing Information, AirTerminal:SingleDuct:VAV:Reheat, MECHANICAL_2_Z14_VAVTERMINAL, Design Size Maximum Flow per Zone Floor Area during Reheat [m3/s-m2], 1.00001E-003
 Component Sizing Information, AirTerminal:SingleDuct:VAV:Reheat, MECHANICAL_2_Z14_VAVTERMINAL, Design Size Maximum Flow Fraction during Reheat [], 0.20000
 Component Sizing Information, AirTerminal:SingleDuct:VAV:Reheat, MECHANICAL_2_Z14_VAVTERMINAL, User-Specified Maximum Reheat Water Flow Rate [m3/s], 2.56794
 Component Sizing Information, Coil:Heating:Electric, MECHANICAL_2_Z14_REHEATCOIL, User-Specified Nominal Capacity [W], 770.38232
 Component Sizing Information, AirTerminal:SingleDuct:VAV:Reheat, OFFICE_OPEN_2_Z15_VAVTERMINAL, User-Specified Maximum Air Flow Rate [m3/s], 2.33793
 Component Sizing Information, AirTerminal:SingleDuct:VAV:Reheat, OFFICE_OPEN_2_Z15_VAVTERMINAL, Design Size Constant Minimum Air Flow Fraction, 0.20000
 Component Sizing Information, AirTerminal:SingleDuct:VAV:Reheat, OFFICE_OPEN_2_Z15_VAVTERMINAL, User-Specified Constant Minimum Air Flow Fraction, 0.20000
 Component Sizing Information, AirTerminal:SingleDuct:VAV:Reheat, OFFICE_OPEN_2_Z15_VAVTERMINAL, Design Size Minimum Air Flow Rate [m3/s], 0.46759
 Component Sizing Information, AirTerminal:SingleDuct:VAV:Reheat, OFFICE_OPEN_2_Z15_VAVTERMINAL, Design Size Maximum Flow per Zone Floor Area during Reheat [m3/s-m2], 1.00000E-003
 Component Sizing Information, AirTerminal:SingleDuct:VAV:Reheat, OFFICE_OPEN_2_Z15_VAVTERMINAL, Design Size Maximum Flow Fraction during Reheat [], 0.20000
 Component Sizing Information, AirTerminal:SingleDuct:VAV:Reheat, OFFICE_OPEN_2_Z15_VAVTERMINAL, User-Specified Maximum Reheat Water Flow Rate [m3/s], 37.40686
 Component Sizing Information, Coil:Heating:Electric, OFFICE_OPEN_2_Z15_REHEATCOIL, User-Specified Nominal Capacity [W], 11222.05694
 Component Sizing Information, AirTerminal:SingleDuct:VAV:Reheat, OFFICE_PRIVATE_2_Z16_VAVTERMINAL, User-Specified Maximum Air Flow Rate [m3/s], 0.24116
 Component Sizing Information, AirTerminal:SingleDuct:VAV:Reheat, OFFICE_PRIVATE_2_Z16_VAVTERMINAL, Design Size Constant Minimum Air Flow Fraction, 0.20000
 Component Sizing Information, AirTerminal:SingleDuct:VAV:Reheat, OFFICE_PRIVATE_2_Z16_VAVTERMINAL, User-Specified Constant Minimum Air Flow Fraction, 0.20000
 Component Sizing Information, AirTerminal:SingleDuct:VAV:Reheat, OFFICE_PRIVATE_2_Z16_VAVTERMINAL, Design Size Minimum Air Flow Rate [m3/s], 4.82328E-002
 Component Sizing Information, AirTerminal:SingleDuct:VAV:Reheat, OFFICE_PRIVATE_2_Z16_VAVTERMINAL, Design Size Maximum Flow per Zone Floor Area during Reheat [m3/s-m2], 9.99992E-004
 Component Sizing Information, AirTerminal:SingleDuct:VAV:Reheat, OFFICE_PRIVATE_2_Z16_VAVTERMINAL, Design Size Maximum Flow Fraction during Reheat [], 0.20000
 Component Sizing Information, AirTerminal:SingleDuct:VAV:Reheat, OFFICE_PRIVATE_2_Z16_VAVTERMINAL, User-Specified Maximum Reheat Water Flow Rate [m3/s], 3.85862
 Component Sizing Information, Coil:Heating:Electric, OFFICE_PRIVATE_2_Z16_REHEATCOIL, User-Specified Nominal Capacity [W], 1157.58613
 Component Sizing Information, AirTerminal:SingleDuct:VAV:Reheat, STORAGE_2_Z17_VAVTERMINAL, User-Specified Maximum Air Flow Rate [m3/s], 0.14460
 Component Sizing Information, AirTerminal:SingleDuct:VAV:Reheat, STORAGE_2_Z17_VAVTERMINAL, Design Size Constant Minimum Air Flow Fraction, 0.20000
 Component Sizing Information, AirTerminal:SingleDuct:VAV:Reheat, STORAGE_2_Z17_VAVTERMINAL, User-Specified Constant Minimum Air Flow Fraction, 0.20000
 Component Sizing Information, AirTerminal:SingleDuct:VAV:Reheat, STORAGE_2_Z17_VAVTERMINAL, Design Size Minimum Air Flow Rate [m3/s], 2.89203E-002
 Component Sizing Information, AirTerminal:SingleDuct:VAV:Reheat, STORAGE_2_Z17_VAVTERMINAL, Design Size Maximum Flow per Zone Floor Area during Reheat [m3/s-m2], 1.00001E-003
 Component Sizing Information, AirTerminal:SingleDuct:VAV:Reheat, STORAGE_2_Z17_VAVTERMINAL, Design Size Maximum Flow Fraction during Reheat [], 0.20000
 Component Sizing Information, AirTerminal:SingleDuct:VAV:Reheat, STORAGE_2_Z17_VAVTERMINAL, User-Specified Maximum Reheat Water Flow Rate [m3/s], 2.31363
 Component Sizing Information, Coil:Heating:Electric, STORAGE_2_Z17_REHEATCOIL, User-Specified Nominal Capacity [W], 694.08776
 Component Sizing Information, AirTerminal:SingleDuct:VAV:Reheat, LOBBY_3_Z18_VAVTERMINAL, User-Specified Maximum Air Flow Rate [m3/s], 0.77341
 Component Sizing Information, AirTerminal:SingleDuct:VAV:Reheat, LOBBY_3_Z18_VAVTERMINAL, Design Size Constant Minimum Air Flow Fraction, 0.20000
 Component Sizing Information, AirTerminal:SingleDuct:VAV:Reheat, LOBBY_3_Z18_VAVTERMINAL, User-Specified Constant Minimum Air Flow Fraction, 0.20000
 Component Sizing Information, AirTerminal:SingleDuct:VAV:Reheat, LOBBY_3_Z18_VAVTERMINAL, Design Size Minimum Air Flow Rate [m3/s], 0.15468
 Component Sizing Information, AirTerminal:SingleDuct:VAV:Reheat, LOBBY_3_Z18_VAVTERMINAL, Design Size Maximum Flow per Zone Floor Area during Reheat [m3/s-m2], 9.99992E-004
 Component Sizing Information, AirTerminal:SingleDuct:VAV:Reheat, LOBBY_3_Z18_VAVTERMINAL, Design Size Maximum Flow Fraction during Reheat [], 0.20000
 Component Sizing Information, AirTerminal:SingleDuct:VAV:Reheat, LOBBY_3_Z18_VAVTERMINAL, User-Specified Maximum Reheat Water Flow Rate [m3/s], 12.37453
 Component Sizing Information, Coil:Heating:Electric, LOBBY_3_Z18_REHEATCOIL, User-Specified Nominal Capacity [W], 3712.35914
 Component Sizing Information, AirTerminal:SingleDuct:VAV:Reheat, CONFERENCE_3_Z19_VAVTERMINAL, User-Specified Maximum Air Flow Rate [m3/s], 0.42498
 Component Sizing Information, AirTerminal:SingleDuct:VAV:Reheat, CONFERENCE_3_Z19_VAVTERMINAL, Design Size Constant Minimum Air Flow Fraction, 0.20000
 Component Sizing Information, AirTerminal:SingleDuct:VAV:Reheat, CONFERENCE_3_Z19_VAVTERMINAL, User-Specified Constant Minimum Air Flow Fraction, 0.20000
 Component Sizing Information, AirTerminal:SingleDuct:VAV:Reheat, CONFERENCE_3_Z19_VAVTERMINAL, Design Size Minimum Air Flow Rate [m3/s], 8.49962E-002
 Component Sizing Information, AirTerminal:SingleDuct:VAV:Reheat, CONFERENCE_3_Z19_VAVTERMINAL, Design Size Maximum Flow per Zone Floor Area during Reheat [m3/s-m2], 1.00000E-003
 Component Sizing Information, AirTerminal:SingleDuct:VAV:Reheat, CONFERENCE_3_Z19_VAVTERMINAL, Design Size Maximum Flow Fraction during Reheat [], 0.20000
 Component Sizing Information, AirTerminal:SingleDuct:VAV:Reheat, CONFERENCE_3_Z19_VAVTERMINAL, User-Specified Maximum Reheat Water Flow Rate [m3/s], 6.79969
 Component Sizing Information, Coil:Heating:Electric, CONFERENCE_3_Z19_REHEATCOIL, User-Specified Nominal Capacity [W], 2039.90847
 Component Sizing Information, AirTerminal:SingleDuct:VAV:Reheat, MECHANICAL_3_Z20_VAVTERMINAL, User-Specified Maximum Air Flow Rate [m3/s], 0.10854
 Component Sizing Information, AirTerminal:SingleDuct:VAV:Reheat, MECHANICAL_3_Z20_VAVTERMINAL, Design Size Constant Minimum Air Flow Fraction, 0.20000
 Component Sizing Information, AirTerminal:SingleDuct:VAV:Reheat, MECHANICAL_3_Z20_VAVTERMINAL, User-Specified Constant Minimum Air Flow Fraction, 0.20000
 Component Sizing Information, AirTerminal:SingleDuct:VAV:Reheat, MECHANICAL_3_Z20_VAVTERMINAL, Design Size Minimum Air Flow Rate [m3/s], 2.17078E-002
 Component Sizing Information, AirTerminal:SingleDuct:VAV:Reheat, MECHANICAL_3_Z20_VAVTERMINAL, Design Size Maximum Flow per Zone Floor Area during Reheat [m3/s-m2], 1.00002E-003
 Component Sizing Information, AirTerminal:SingleDuct:VAV:Reheat, MECHANICAL_3_Z20_VAVTERMINAL, Design Size Maximum Flow Fraction during Reheat [], 0.20000
 Component Sizing Information, AirTerminal:SingleDuct:VAV:Reheat, MECHANICAL_3_Z20_VAVTERMINAL, User-Specified Maximum Reheat Water Flow Rate [m3/s], 1.73662
 Component Sizing Information, Coil:Heating:Electric, MECHANICAL_3_Z20_REHEATCOIL, User-Specified Nominal Capacity [W], 520.98736
 Component Sizing Information, AirTerminal:SingleDuct:VAV:Reheat, STORAGE_3_Z21_VAVTERMINAL, User-Specified Maximum Air Flow Rate [m3/s], 0.11324
 Component Sizing Information, AirTerminal:SingleDuct:VAV:Reheat, STORAGE_3_Z21_VAVTERMINAL, Design Size Constant Minimum Air Flow Fraction, 0.20000
 Component Sizing Information, AirTerminal:SingleDuct:VAV:Reheat, STORAGE_3_Z21_VAVTERMINAL, User-Specified Constant Minimum Air Flow Fraction, 0.20000
 Component Sizing Information, AirTerminal:SingleDuct:VAV:Reheat, STORAGE_3_Z21_VAVTERMINAL, Design Size Minimum Air Flow Rate [m3/s], 2.26484E-002
 Component Sizing Information, AirTerminal:SingleDuct:VAV:Reheat, STORAGE_3_Z21_VAVTERMINAL, Design Size Maximum Flow per Zone Floor Area during Reheat [m3/s-m2], 9.99993E-004
 Component Sizing Information, AirTerminal:SingleDuct:VAV:Reheat, STORAGE_3_Z21_VAVTERMINAL, Design Size Maximum Flow Fraction during Reheat [], 0.20000
 Component Sizing Information, AirTerminal:SingleDuct:VAV:Reheat, STORAGE_3_Z21_VAVTERMINAL, User-Specified Maximum Reheat Water Flow Rate [m3/s], 1.81187
 Component Sizing Information, Coil:Heating:Electric, STORAGE_3_Z21_REHEATCOIL, User-Specified Nominal Capacity [W], 543.56044
 Component Sizing Information, AirTerminal:SingleDuct:VAV:Reheat, LOBBY_4_Z22_VAVTERMINAL, User-Specified Maximum Air Flow Rate [m3/s], 0.54052
 Component Sizing Information, AirTerminal:SingleDuct:VAV:Reheat, LOBBY_4_Z22_VAVTERMINAL, Design Size Constant Minimum Air Flow Fraction, 0.20000
 Component Sizing Information, AirTerminal:SingleDuct:VAV:Reheat, LOBBY_4_Z22_VAVTERMINAL, User-Specified Constant Minimum Air Flow Fraction, 0.20000
 Component Sizing Information, AirTerminal:SingleDuct:VAV:Reheat, LOBBY_4_Z22_VAVTERMINAL, Design Size Minimum Air Flow Rate [m3/s], 0.10810
 Component Sizing Information, AirTerminal:SingleDuct:VAV:Reheat, LOBBY_4_Z22_VAVTERMINAL, Design Size Maximum Flow per Zone Floor Area during Reheat [m3/s-m2], 9.99998E-004
 Component Sizing Information, AirTerminal:SingleDuct:VAV:Reheat, LOBBY_4_Z22_VAVTERMINAL, Design Size Maximum Flow Fraction during Reheat [], 0.20000
 Component Sizing Information, AirTerminal:SingleDuct:VAV:Reheat, LOBBY_4_Z22_VAVTERMINAL, User-Specified Maximum Reheat Water Flow Rate [m3/s], 8.64825
 Component Sizing Information, Coil:Heating:Electric, LOBBY_4_Z22_REHEATCOIL, User-Specified Nominal Capacity [W], 2594.47594
 Component Sizing Information, AirTerminal:SingleDuct:VAV:Reheat, CONFERENCE_4_Z23_VAVTERMINAL, User-Specified Maximum Air Flow Rate [m3/s], 0.44484
 Component Sizing Information, AirTerminal:SingleDuct:VAV:Reheat, CONFERENCE_4_Z23_VAVTERMINAL, Design Size Constant Minimum Air Flow Fraction, 0.20000
 Component Sizing Information, AirTerminal:SingleDuct:VAV:Reheat, CONFERENCE_4_Z23_VAVTERMINAL, User-Specified Constant Minimum Air Flow Fraction, 0.20000
 Component Sizing Information, AirTerminal:SingleDuct:VAV:Reheat, CONFERENCE_4_Z23_VAVTERMINAL, Design Size Minimum Air Flow Rate [m3/s], 8.89676E-002
 Component Sizing Information, AirTerminal:SingleDuct:VAV:Reheat, CONFERENCE_4_Z23_VAVTERMINAL, Design Size Maximum Flow per Zone Floor Area during Reheat [m3/s-m2], 1.00001E-003
 Component Sizing Information, AirTerminal:SingleDuct:VAV:Reheat, CONFERENCE_4_Z23_VAVTERMINAL, Design Size Maximum Flow Fraction during Reheat [], 0.20000
 Component Sizing Information, AirTerminal:SingleDuct:VAV:Reheat, CONFERENCE_4_Z23_VAVTERMINAL, User-Specified Maximum Reheat Water Flow Rate [m3/s], 7.11741
 Component Sizing Information, Coil:Heating:Electric, CONFERENCE_4_Z23_REHEATCOIL, User-Specified Nominal Capacity [W], 2135.22178
 Component Sizing Information, AirTerminal:SingleDuct:VAV:Reheat, BREAK_ROOM_4_Z24_VAVTERMINAL, User-Specified Maximum Air Flow Rate [m3/s], 0.23289
 Component Sizing Information, AirTerminal:SingleDuct:VAV:Reheat, BREAK_ROOM_4_Z24_VAVTERMINAL, Design Size Constant Minimum Air Flow Fraction, 0.20000
 Component Sizing Information, AirTerminal:SingleDuct:VAV:Reheat, BREAK_ROOM_4_Z24_VAVTERMINAL, User-Specified Constant Minimum Air Flow Fraction, 0.20000
 Component Sizing Information, AirTerminal:SingleDuct:VAV:Reheat, BREAK_ROOM_4_Z24_VAVTERMINAL, Design Size Minimum Air Flow Rate [m3/s], 4.65781E-002
 Component Sizing Information, AirTerminal:SingleDuct:VAV:Reheat, BREAK_ROOM_4_Z24_VAVTERMINAL, Design Size Maximum Flow per Zone Floor Area during Reheat [m3/s-m2], 1.00001E-003
 Component Sizing Information, AirTerminal:SingleDuct:VAV:Reheat, BREAK_ROOM_4_Z24_VAVTERMINAL, Design Size Maximum Flow Fraction during Reheat [], 0.20000
 Component Sizing Information, AirTerminal:SingleDuct:VAV:Reheat, BREAK_ROOM_4_Z24_VAVTERMINAL, User-Specified Maximum Reheat Water Flow Rate [m3/s], 3.72624
 Component Sizing Information, Coil:Heating:Electric, BREAK_ROOM_4_Z24_REHEATCOIL, User-Specified Nominal Capacity [W], 1117.87326
 Component Sizing Information, AirTerminal:SingleDuct:VAV:Reheat, MECHANICAL_4_Z25_VAVTERMINAL, User-Specified Maximum Air Flow Rate [m3/s], 0.17063
 Component Sizing Information, AirTerminal:SingleDuct:VAV:Reheat, MECHANICAL_4_Z25_VAVTERMINAL, Design Size Constant Minimum Air Flow Fraction, 0.20000
 Component Sizing Information, AirTerminal:SingleDuct:VAV:Reheat, MECHANICAL_4_Z25_VAVTERMINAL, User-Specified Constant Minimum Air Flow Fraction, 0.20000
 Component Sizing Information, AirTerminal:SingleDuct:VAV:Reheat, MECHANICAL_4_Z25_VAVTERMINAL, Design Size Minimum Air Flow Rate [m3/s], 3.41267E-002
 Component Sizing Information, AirTerminal:SingleDuct:VAV:Reheat, MECHANICAL_4_Z25_VAVTERMINAL, Design Size Maximum Flow per Zone Floor Area during Reheat [m3/s-m2], 1.00002E-003
 Component Sizing Information, AirTerminal:SingleDuct:VAV:Reheat, MECHANICAL_4_Z25_VAVTERMINAL, Design Size Maximum Flow Fraction during Reheat [], 0.20000
 Component Sizing Information, AirTerminal:SingleDuct:VAV:Reheat, MECHANICAL_4_Z25_VAVTERMINAL, User-Specified Maximum Reheat Water Flow Rate [m3/s], 2.73013
 Component Sizing Information, Coil:Heating:Electric, MECHANICAL_4_Z25_REHEATCOIL, User-Specified Nominal Capacity [W], 819.03970
 Component Sizing Information, AirTerminal:SingleDuct:VAV:Reheat, OFFICE_PRIVATE_4_Z26_VAVTERMINAL, User-Specified Maximum Air Flow Rate [m3/s], 0.24448
 Component Sizing Information, AirTerminal:SingleDuct:VAV:Reheat, OFFICE_PRIVATE_4_Z26_VAVTERMINAL, Design Size Constant Minimum Air Flow Fraction, 0.20000
 Component Sizing Information, AirTerminal:SingleDuct:VAV:Reheat, OFFICE_PRIVATE_4_Z26_VAVTERMINAL, User-Specified Constant Minimum Air Flow Fraction, 0.20000
 Component Sizing Information, AirTerminal:SingleDuct:VAV:Reheat, OFFICE_PRIVATE_4_Z26_VAVTERMINAL, Design Size Minimum Air Flow Rate [m3/s], 4.88951E-002
 Component Sizing Information, AirTerminal:SingleDuct:VAV:Reheat, OFFICE_PRIVATE_4_Z26_VAVTERMINAL, Design Size Maximum Flow per Zone Floor Area during Reheat [m3/s-m2], 1.00001E-003
 Component Sizing Information, AirTerminal:SingleDuct:VAV:Reheat, OFFICE_PRIVATE_4_Z26_VAVTERMINAL, Design Size Maximum Flow Fraction during Reheat [], 0.20000
 Component Sizing Information, AirTerminal:SingleDuct:VAV:Reheat, OFFICE_PRIVATE_4_Z26_VAVTERMINAL, User-Specified Maximum Reheat Water Flow Rate [m3/s], 3.91161
 Component Sizing Information, Coil:Heating:Electric, OFFICE_PRIVATE_4_Z26_REHEATCOIL, User-Specified Nominal Capacity [W], 1173.48318
 Component Sizing Information, AirTerminal:SingleDuct:VAV:Reheat, STORAGE_4_Z27_VAVTERMINAL, User-Specified Maximum Air Flow Rate [m3/s], 0.10583
 Component Sizing Information, AirTerminal:SingleDuct:VAV:Reheat, STORAGE_4_Z27_VAVTERMINAL, Design Size Constant Minimum Air Flow Fraction, 0.20000
 Component Sizing Information, AirTerminal:SingleDuct:VAV:Reheat, STORAGE_4_Z27_VAVTERMINAL, User-Specified Constant Minimum Air Flow Fraction, 0.20000
 Component Sizing Information, AirTerminal:SingleDuct:VAV:Reheat, STORAGE_4_Z27_VAVTERMINAL, Design Size Minimum Air Flow Rate [m3/s], 2.11667E-002
 Component Sizing Information, AirTerminal:SingleDuct:VAV:Reheat, STORAGE_4_Z27_VAVTERMINAL, Design Size Maximum Flow per Zone Floor Area during Reheat [m3/s-m2], 1.00001E-003
 Component Sizing Information, AirTerminal:SingleDuct:VAV:Reheat, STORAGE_4_Z27_VAVTERMINAL, Design Size Maximum Flow Fraction during Reheat [], 0.20000
 Component Sizing Information, AirTerminal:SingleDuct:VAV:Reheat, STORAGE_4_Z27_VAVTERMINAL, User-Specified Maximum Reheat Water Flow Rate [m3/s], 1.69334
 Component Sizing Information, Coil:Heating:Electric, STORAGE_4_Z27_REHEATCOIL, User-Specified Nominal Capacity [W], 508.00146
 Component Sizing Information, Coil:Cooling:DX:SingleSpeed, LOBBY_0_Z1_COOLINGCOILDX, User-Specified Rated Air Flow Rate [m3/s], 0.86497
 Component Sizing Information, Coil:Cooling:DX:SingleSpeed, LOBBY_0_Z1_COOLINGCOILDX, User-Specified Gross Rated Total Cooling Capacity [W], 17299.49153
 Component Sizing Information, Coil:Cooling:DX:SingleSpeed, LOBBY_0_Z1_COOLINGCOILDX, User-Specified Gross Rated Sensible Heat Ratio, 0.75000
! <DX Cooling Coil Standard Rating Information>, Component Type, Component Name, Standard Rating (Net) Cooling Capacity {W}, Standard Rating Net COP {W/W}, EER {Btu/W-h}, SEER User {Btu/W-h}, SEER Standard {Btu/W-h}, IEER {Btu/W-h}
[...]
 Sky Daylight Factors,Clear Turbid Sky,01/01,OFFICE_PRIVATE_2_DAYLIGHT,OFFICE_PRIVATE_2,OFFICE_PRIVATE_2_WINDOW_2,OFFICE_PRIVATE_2_REFERENCEPOINT1,6.0367E-003
 Sky Daylight Factors,Intermediate Sky,01/01,OFFICE_PRIVATE_2_DAYLIGHT,OFFICE_PRIVATE_2,OFFICE_PRIVATE_2_WINDOW_2,OFFICE_PRIVATE_2_REFERENCEPOINT1,6.0892E-003
 Sky Daylight Factors,Overcast Sky,01/01,OFFICE_PRIVATE_2_DAYLIGHT,OFFICE_PRIVATE_2,OFFICE_PRIVATE_2_WINDOW_2,OFFICE_PRIVATE_2_REFERENCEPOINT1,5.2582E-003
 Sky Daylight Factors,Clear Sky,01/01,OFFICE_PRIVATE_2_DAYLIGHT,OFFICE_PRIVATE_2,OFFICE_PRIVATE_2_WINDOW_3,OFFICE_PRIVATE_2_REFERENCEPOINT1,4.2990E-003
 Sky Daylight Factors,Clear Turbid Sky,01/01,OFFICE_PRIVATE_2_DAYLIGHT,OFFICE_PRIVATE_2,OFFICE_PRIVATE_2_WINDOW_3,OFFICE_PRIVATE_2_REFERENCEPOINT1,3.4725E-003
 Sky Daylight Factors,Intermediate Sky,01/01,OFFICE_PRIVATE_2_DAYLIGHT,OFFICE_PRIVATE_2,OFFICE_PRIVATE_2_WINDOW_3,OFFICE_PRIVATE_2_REFERENCEPOINT1,3.1785E-003
 Sky Daylight Factors,Overcast Sky,01/01,OFFICE_PRIVATE_2_DAYLIGHT,OFFICE_PRIVATE_2,OFFICE_PRIVATE_2_WINDOW_3,OFFICE_PRIVATE_2_REFERENCEPOINT1,4.5662E-003
 Sky Daylight Factors,Clear Sky,01/01,OFFICE_PRIVATE_2_DAYLIGHT,OFFICE_PRIVATE_2,OFFICE_PRIVATE_2_WINDOW_4,OFFICE_PRIVATE_2_REFERENCEPOINT1,5.9124E-003
 Sky Daylight Factors,Clear Turbid Sky,01/01,OFFICE_PRIVATE_2_DAYLIGHT,OFFICE_PRIVATE_2,OFFICE_PRIVATE_2_WINDOW_4,OFFICE_PRIVATE_2_REFERENCEPOINT1,5.6914E-003
 Sky Daylight Factors,Intermediate Sky,01/01,OFFICE_PRIVATE_2_DAYLIGHT,OFFICE_PRIVATE_2,OFFICE_PRIVATE_2_WINDOW_4,OFFICE_PRIVATE_2_REFERENCEPOINT1,5.8052E-003
 Sky Daylight Factors,Overcast Sky,01/01,OFFICE_PRIVATE_2_DAYLIGHT,OFFICE_PRIVATE_2,OFFICE_PRIVATE_2_WINDOW_4,OFFICE_PRIVATE_2_REFERENCEPOINT1,4.8533E-003
 Sky Daylight Factors,Clear Sky,01/01,LOBBY_3_DAYLIGHT,LOBBY_3,LOBBY_3_WINDOW_1,LOBBY_3_REFERENCEPOINT1,2.5572E-003
 Sky Daylight Factors,Clear Turbid Sky,01/01,LOBBY_3_DAYLIGHT,LOBBY_3,LOBBY_3_WINDOW_1,LOBBY_3_REFERENCEPOINT1,2.8059E-003
 Sky Daylight Factors,Intermediate Sky,01/01,LOBBY_3_DAYLIGHT,LOBBY_3,LOBBY_3_WINDOW_1,LOBBY_3_REFERENCEPOINT1,1.5010E-003
 Sky Daylight Factors,Overcast Sky,01/01,LOBBY_3_DAYLIGHT,LOBBY_3,LOBBY_3_WINDOW_1,LOBBY_3_REFERENCEPOINT1,7.4720E-004
 Sky Daylight Factors,Clear Sky,01/01,LOBBY_3_DAYLIGHT,LOBBY_3,LOBBY_3_WINDOW_2,LOBBY_3_REFERENCEPOINT1,5.4572E-003
 Sky Daylight Factors,Clear Turbid Sky,01/01,LOBBY_3_DAYLIGHT,LOBBY_3,LOBBY_3_WINDOW_2,LOBBY_3_REFERENCEPOINT1,5.1118E-003
 Sky Daylight Factors,Intermediate Sky,01/01,LOBBY_3_DAYLIGHT,LOBBY_3,LOBBY_3_WINDOW_2,LOBBY_3_REFERENCEPOINT1,5.1486E-003
 Sky Daylight Factors,Overcast Sky,01/01,LOBBY_3_DAYLIGHT,LOBBY_3,LOBBY_3_WINDOW_2,LOBBY_3_REFERENCEPOINT1,4.4461E-003
 Sky Daylight Factors,Clear Sky,01/01,LOBBY_3_DAYLIGHT,LOBBY_3,LOBBY_3_WINDOW_3,LOBBY_3_REFERENCEPOINT1,1.6763E-003
 Sky Daylight Factors,Clear Turbid Sky,01/01,LOBBY_3_DAYLIGHT,LOBBY_3,LOBBY_3_WINDOW_3,LOBBY_3_REFERENCEPOINT1,1.4542E-003
 Sky Daylight Factors,Intermediate Sky,01/01,LOBBY_3_DAYLIGHT,LOBBY_3,LOBBY_3_WINDOW_3,LOBBY_3_REFERENCEPOINT1,1.4076E-003
 Sky Daylight Factors,Overcast Sky,01/01,LOBBY_3_DAYLIGHT,LOBBY_3,LOBBY_3_WINDOW_3,LOBBY_3_REFERENCEPOINT1,1.7428E-003
 Sky Daylight Factors,Clear Sky,01/01,LOBBY_3_DAYLIGHT,LOBBY_3,LOBBY_3_WINDOW_4,LOBBY_3_REFERENCEPOINT1,5.2868E-003
 Sky Daylight Factors,Clear Turbid Sky,01/01,LOBBY_3_DAYLIGHT,LOBBY_3,LOBBY_3_WINDOW_4,LOBBY_3_REFERENCEPOINT1,4.9503E-003
 Sky Daylight Factors,Intermediate Sky,01/01,LOBBY_3_DAYLIGHT,LOBBY_3,LOBBY_3_WINDOW_4,LOBBY_3_REFERENCEPOINT1,4.9733E-003
 Sky Daylight Factors,Overcast Sky,01/01,LOBBY_3_DAYLIGHT,LOBBY_3,LOBBY_3_WINDOW_4,LOBBY_3_REFERENCEPOINT1,4.2475E-003
 Sky Daylight Factors,Clear Sky,01/01,CONFERENCE_3_DAYLIGHT,CONFERENCE_3,CONFERENCE_3_WINDOW_1,CONFERENCE_3_REFERENCEPOINT1,4.7666E-003
 Sky Daylight Factors,Clear Turbid Sky,01/01,CONFERENCE_3_DAYLIGHT,CONFERENCE_3,CONFERENCE_3_WINDOW_1,CONFERENCE_3_REFERENCEPOINT1,5.3630E-003
 Sky Daylight Factors,Intermediate Sky,01/01,CONFERENCE_3_DAYLIGHT,CONFERENCE_3,CONFERENCE_3_WINDOW_1,CONFERENCE_3_REFERENCEPOINT1,3.3545E-003
 Sky Daylight Factors,Overcast Sky,01/01,CONFERENCE_3_DAYLIGHT,CONFERENCE_3,CONFERENCE_3_WINDOW_1,CONFERENCE_3_REFERENCEPOINT1,1.7617E-003
 Sky Daylight Factors,Clear Sky,01/01,CONFERENCE_3_DAYLIGHT,CONFERENCE_3,CONFERENCE_3_WINDOW_2,CONFERENCE_3_REFERENCEPOINT1,5.5328E-003
 Sky Daylight Factors,Clear Turbid Sky,01/01,CONFERENCE_3_DAYLIGHT,CONFERENCE_3,CONFERENCE_3_WINDOW_2,CONFERENCE_3_REFERENCEPOINT1,5.0708E-003
 Sky Daylight Factors,Intermediate Sky,01/01,CONFERENCE_3_DAYLIGHT,CONFERENCE_3,CONFERENCE_3_WINDOW_2,CONFERENCE_3_REFERENCEPOINT1,5.5586E-003
 Sky Daylight Factors,Overcast Sky,01/01,CONFERENCE_3_DAYLIGHT,CONFERENCE_3,CONFERENCE_3_WINDOW_2,CONFERENCE_3_REFERENCEPOINT1,5.1206E-003
 Sky Daylight Factors,Clear Sky,01/01,CONFERENCE_3_DAYLIGHT,CONFERENCE_3,CONFERENCE_3_WINDOW_3,CONFERENCE_3_REFERENCEPOINT1,3.1847E-003
 Sky Daylight Factors,Clear Turbid Sky,01/01,CONFERENCE_3_DAYLIGHT,CONFERENCE_3,CONFERENCE_3_WINDOW_3,CONFERENCE_3_REFERENCEPOINT1,2.6007E-003
 Sky Daylight Factors,Intermediate Sky,01/01,CONFERENCE_3_DAYLIGHT,CONFERENCE_3,CONFERENCE_3_WINDOW_3,CONFERENCE_3_REFERENCEPOINT1,2.4528E-003
 Sky Daylight Factors,Overcast Sky,01/01,CONFERENCE_3_DAYLIGHT,CONFERENCE_3,CONFERENCE_3_WINDOW_3,CONFERENCE_3_REFERENCEPOINT1,3.4656E-003
 Sky Daylight Factors,Clear Sky,01/01,CONFERENCE_3_DAYLIGHT,CONFERENCE_3,CONFERENCE_3_WINDOW_4,CONFERENCE_3_REFERENCEPOINT1,6.0140E-003
 Sky Daylight Factors,Clear Turbid Sky,01/01,CONFERENCE_3_DAYLIGHT,CONFERENCE_3,CONFERENCE_3_WINDOW_4,CONFERENCE_3_REFERENCEPOINT1,5.6076E-003
 Sky Daylight Factors,Intermediate Sky,01/01,CONFERENCE_3_DAYLIGHT,CONFERENCE_3,CONFERENCE_3_WINDOW_4,CONFERENCE_3_REFERENCEPOINT1,5.6335E-003
 Sky Daylight Factors,Overcast Sky,01/01,CONFERENCE_3_DAYLIGHT,CONFERENCE_3,CONFERENCE_3_WINDOW_4,CONFERENCE_3_REFERENCEPOINT1,4.7602E-003
 Sky Daylight Factors,Clear Sky,01/01,LOBBY_4_DAYLIGHT,LOBBY_4,LOBBY_4_WINDOW_1,LOBBY_4_REFERENCEPOINT1,5.1260E-003
 Sky Daylight Factors,Clear Turbid Sky,01/01,LOBBY_4_DAYLIGHT,LOBBY_4,LOBBY_4_WINDOW_1,LOBBY_4_REFERENCEPOINT1,5.7070E-003
 Sky Daylight Factors,Intermediate Sky,01/01,LOBBY_4_DAYLIGHT,LOBBY_4,LOBBY_4_WINDOW_1,LOBBY_4_REFERENCEPOINT1,3.6439E-003
 Sky Daylight Factors,Overcast Sky,01/01,LOBBY_4_DAYLIGHT,LOBBY_4,LOBBY_4_WINDOW_1,LOBBY_4_REFERENCEPOINT1,1.9028E-003
 Sky Daylight Factors,Clear Sky,01/01,LOBBY_4_DAYLIGHT,LOBBY_4,LOBBY_4_WINDOW_2,LOBBY_4_REFERENCEPOINT1,0.0000
 Sky Daylight Factors,Clear Turbid Sky,01/01,LOBBY_4_DAYLIGHT,LOBBY_4,LOBBY_4_WINDOW_2,LOBBY_4_REFERENCEPOINT1,0.0000
 Sky Daylight Factors,Intermediate Sky,01/01,LOBBY_4_DAYLIGHT,LOBBY_4,LOBBY_4_WINDOW_2,LOBBY_4_REFERENCEPOINT1,0.0000
 Sky Daylight Factors,Overcast Sky,01/01,LOBBY_4_DAYLIGHT,LOBBY_4,LOBBY_4_WINDOW_2,LOBBY_4_REFERENCEPOINT1,0.0000
 Sky Daylight Factors,Clear Sky,01/01,LOBBY_4_DAYLIGHT,LOBBY_4,LOBBY_4_WINDOW_3,LOBBY_4_REFERENCEPOINT1,3.4195E-003
 Sky Daylight Factors,Clear Turbid Sky,01/01,LOBBY_4_DAYLIGHT,LOBBY_4,LOBBY_4_WINDOW_3,LOBBY_4_REFERENCEPOINT1,2.7422E-003
 Sky Daylight Factors,Intermediate Sky,01/01,LOBBY_4_DAYLIGHT,LOBBY_4,LOBBY_4_WINDOW_3,LOBBY_4_REFERENCEPOINT1,2.4371E-003
 Sky Daylight Factors,Overcast Sky,01/01,LOBBY_4_DAYLIGHT,LOBBY_4,LOBBY_4_WINDOW_3,LOBBY_4_REFERENCEPOINT1,3.4533E-003
 Sky Daylight Factors,Clear Sky,01/01,LOBBY_4_DAYLIGHT,LOBBY_4,LOBBY_4_WINDOW_4,LOBBY_4_REFERENCEPOINT1,5.5438E-003
 Sky Daylight Factors,Clear Turbid Sky,01/01,LOBBY_4_DAYLIGHT,LOBBY_4,LOBBY_4_WINDOW_4,LOBBY_4_REFERENCEPOINT1,5.1697E-003
 Sky Daylight Factors,Intermediate Sky,01/01,LOBBY_4_DAYLIGHT,LOBBY_4,LOBBY_4_WINDOW_4,LOBBY_4_REFERENCEPOINT1,5.1935E-003
 Sky Daylight Factors,Overcast Sky,01/01,LOBBY_4_DAYLIGHT,LOBBY_4,LOBBY_4_WINDOW_4,LOBBY_4_REFERENCEPOINT1,4.3896E-003
 Sky Daylight Factors,Clear Sky,01/01,CONFERENCE_4_DAYLIGHT,CONFERENCE_4,CONFERENCE_4_WINDOW_1,CONFERENCE_4_REFERENCEPOINT1,6.7664E-003
 Sky Daylight Factors,Clear Turbid Sky,01/01,CONFERENCE_4_DAYLIGHT,CONFERENCE_4,CONFERENCE_4_WINDOW_1,CONFERENCE_4_REFERENCEPOINT1,7.5677E-003
 Sky Daylight Factors,Intermediate Sky,01/01,CONFERENCE_4_DAYLIGHT,CONFERENCE_4,CONFERENCE_4_WINDOW_1,CONFERENCE_4_REFERENCEPOINT1,4.7221E-003
 Sky Daylight Factors,Overcast Sky,01/01,CONFERENCE_4_DAYLIGHT,CONFERENCE_4,CONFERENCE_4_WINDOW_1,CONFERENCE_4_REFERENCEPOINT1,2.3205E-003
 Sky Daylight Factors,Clear Sky,01/01,CONFERENCE_4_DAYLIGHT,CONFERENCE_4,CONFERENCE_4_WINDOW_2,CONFERENCE_4_REFERENCEPOINT1,5.0673E-003
 Sky Daylight Factors,Clear Turbid Sky,01/01,CONFERENCE_4_DAYLIGHT,CONFERENCE_4,CONFERENCE_4_WINDOW_2,CONFERENCE_4_REFERENCEPOINT1,4.7470E-003
 Sky Daylight Factors,Intermediate Sky,01/01,CONFERENCE_4_DAYLIGHT,CONFERENCE_4,CONFERENCE_4_WINDOW_2,CONFERENCE_4_REFERENCEPOINT1,4.7811E-003
 Sky Daylight Factors,Overcast Sky,01/01,CONFERENCE_4_DAYLIGHT,CONFERENCE_4,CONFERENCE_4_WINDOW_2,CONFERENCE_4_REFERENCEPOINT1,4.1296E-003
 Sky Daylight Factors,Clear Sky,01/01,CONFERENCE_4_DAYLIGHT,CONFERENCE_4,CONFERENCE_4_WINDOW_3,CONFERENCE_4_REFERENCEPOINT1,4.8073E-003
 Sky Daylight Factors,Clear Turbid Sky,01/01,CONFERENCE_4_DAYLIGHT,CONFERENCE_4,CONFERENCE_4_WINDOW_3,CONFERENCE_4_REFERENCEPOINT1,3.8700E-003
 Sky Daylight Factors,Intermediate Sky,01/01,CONFERENCE_4_DAYLIGHT,CONFERENCE_4,CONFERENCE_4_WINDOW_3,CONFERENCE_4_REFERENCEPOINT1,3.4479E-003
 Sky Daylight Factors,Overcast Sky,01/01,CONFERENCE_4_DAYLIGHT,CONFERENCE_4,CONFERENCE_4_WINDOW_3,CONFERENCE_4_REFERENCEPOINT1,4.8540E-003
 Sky Daylight Factors,Clear Sky,01/01,CONFERENCE_4_DAYLIGHT,CONFERENCE_4,CONFERENCE_4_WINDOW_4,CONFERENCE_4_REFERENCEPOINT1,4.7149E-003
 Sky Daylight Factors,Clear Turbid Sky,01/01,CONFERENCE_4_DAYLIGHT,CONFERENCE_4,CONFERENCE_4_WINDOW_4,CONFERENCE_4_REFERENCEPOINT1,4.4019E-003
 Sky Daylight Factors,Intermediate Sky,01/01,CONFERENCE_4_DAYLIGHT,CONFERENCE_4,CONFERENCE_4_WINDOW_4,CONFERENCE_4_REFERENCEPOINT1,4.4219E-003
 Sky Daylight Factors,Overcast Sky,01/01,CONFERENCE_4_DAYLIGHT,CONFERENCE_4,CONFERENCE_4_WINDOW_4,CONFERENCE_4_REFERENCEPOINT1,3.7493E-003
 Sky Daylight Factors,Clear Sky,01/01,BREAK_ROOM_4_DAYLIGHT,BREAK_ROOM_4,BREAK_ROOM_4_WINDOW_1,BREAK_ROOM_4_REFERENCEPOINT1,7.5881E-003
 Sky Daylight Factors,Clear Turbid Sky,01/01,BREAK_ROOM_4_DAYLIGHT,BREAK_ROOM_4,BREAK_ROOM_4_WINDOW_1,BREAK_ROOM_4_REFERENCEPOINT1,8.4468E-003
 Sky Daylight Factors,Intermediate Sky,01/01,BREAK_ROOM_4_DAYLIGHT,BREAK_ROOM_4,BREAK_ROOM_4_WINDOW_1,BREAK_ROOM_4_REFERENCEPOINT1,5.3977E-003
 Sky Daylight Factors,Overcast Sky,01/01,BREAK_ROOM_4_DAYLIGHT,BREAK_ROOM_4,BREAK_ROOM_4_WINDOW_1,BREAK_ROOM_4_REFERENCEPOINT1,2.8243E-003
 Sky Daylight Factors,Clear Sky,01/01,BREAK_ROOM_4_DAYLIGHT,BREAK_ROOM_4,BREAK_ROOM_4_WINDOW_2,BREAK_ROOM_4_REFERENCEPOINT1,6.5642E-003
 Sky Daylight Factors,Clear Turbid Sky,01/01,BREAK_ROOM_4_DAYLIGHT,BREAK_ROOM_4,BREAK_ROOM_4_WINDOW_2,BREAK_ROOM_4_REFERENCEPOINT1,6.1472E-003
 Sky Daylight Factors,Intermediate Sky,01/01,BREAK_ROOM_4_DAYLIGHT,BREAK_ROOM_4,BREAK_ROOM_4_WINDOW_2,BREAK_ROOM_4_REFERENCEPOINT1,6.1917E-003
 Sky Daylight Factors,Overcast Sky,01/01,BREAK_ROOM_4_DAYLIGHT,BREAK_ROOM_4,BREAK_ROOM_4_WINDOW_2,BREAK_ROOM_4_REFERENCEPOINT1,5.3435E-003
 Sky Daylight Factors,Clear Sky,01/01,BREAK_ROOM_4_DAYLIGHT,BREAK_ROOM_4,BREAK_ROOM_4_WINDOW_3,BREAK_ROOM_4_REFERENCEPOINT1,4.3280E-003
 Sky Daylight Factors,Clear Turbid Sky,01/01,BREAK_ROOM_4_DAYLIGHT,BREAK_ROOM_4,BREAK_ROOM_4_WINDOW_3,BREAK_ROOM_4_REFERENCEPOINT1,3.3233E-003
 Sky Daylight Factors,Intermediate Sky,01/01,BREAK_ROOM_4_DAYLIGHT,BREAK_ROOM_4,BREAK_ROOM_4_WINDOW_3,BREAK_ROOM_4_REFERENCEPOINT1,2.8708E-003
 Sky Daylight Factors,Overcast Sky,01/01,BREAK_ROOM_4_DAYLIGHT,BREAK_ROOM_4,BREAK_ROOM_4_WINDOW_3,BREAK_ROOM_4_REFERENCEPOINT1,4.3782E-003
 Sky Daylight Factors,Clear Sky,01/01,BREAK_ROOM_4_DAYLIGHT,BREAK_ROOM_4,BREAK_ROOM_4_WINDOW_4,BREAK_ROOM_4_REFERENCEPOINT1,6.3079E-003
 Sky Daylight Factors,Clear Turbid Sky,01/01,BREAK_ROOM_4_DAYLIGHT,BREAK_ROOM_4,BREAK_ROOM_4_WINDOW_4,BREAK_ROOM_4_REFERENCEPOINT1,5.9004E-003
 Sky Daylight Factors,Intermediate Sky,01/01,BREAK_ROOM_4_DAYLIGHT,BREAK_ROOM_4,BREAK_ROOM_4_WINDOW_4,BREAK_ROOM_4_REFERENCEPOINT1,5.9264E-003
 Sky Daylight Factors,Overcast Sky,01/01,BREAK_ROOM_4_DAYLIGHT,BREAK_ROOM_4,BREAK_ROOM_4_WINDOW_4,BREAK_ROOM_4_REFERENCEPOINT1,5.0508E-003
 Sky Daylight Factors,Clear Sky,01/01,OFFICE_PRIVATE_4_DAYLIGHT,OFFICE_PRIVATE_4,OFFICE_PRIVATE_4_WINDOW_1,OFFICE_PRIVATE_4_REFERENCEPOINT1,7.7917E-003
 Sky Daylight Factors,Clear Turbid Sky,01/01,OFFICE_PRIVATE_4_DAYLIGHT,OFFICE_PRIVATE_4,OFFICE_PRIVATE_4_WINDOW_1,OFFICE_PRIVATE_4_REFERENCEPOINT1,8.6899E-003
 Sky Daylight Factors,Intermediate Sky,01/01,OFFICE_PRIVATE_4_DAYLIGHT,OFFICE_PRIVATE_4,OFFICE_PRIVATE_4_WINDOW_1,OFFICE_PRIVATE_4_REFERENCEPOINT1,5.5016E-003
 Sky Daylight Factors,Overcast Sky,01/01,OFFICE_PRIVATE_4_DAYLIGHT,OFFICE_PRIVATE_4,OFFICE_PRIVATE_4_WINDOW_1,OFFICE_PRIVATE_4_REFERENCEPOINT1,2.8547E-003
 Sky Daylight Factors,Clear Sky,01/01,OFFICE_PRIVATE_4_DAYLIGHT,OFFICE_PRIVATE_4,OFFICE_PRIVATE_4_WINDOW_2,OFFICE_PRIVATE_4_REFERENCEPOINT1,5.9119E-003
 Sky Daylight Factors,Clear Turbid Sky,01/01,OFFICE_PRIVATE_4_DAYLIGHT,OFFICE_PRIVATE_4,OFFICE_PRIVATE_4_WINDOW_2,OFFICE_PRIVATE_4_REFERENCEPOINT1,5.5182E-003
 Sky Daylight Factors,Intermediate Sky,01/01,OFFICE_PRIVATE_4_DAYLIGHT,OFFICE_PRIVATE_4,OFFICE_PRIVATE_4_WINDOW_2,OFFICE_PRIVATE_4_REFERENCEPOINT1,5.5601E-003
 Sky Daylight Factors,Overcast Sky,01/01,OFFICE_PRIVATE_4_DAYLIGHT,OFFICE_PRIVATE_4,OFFICE_PRIVATE_4_WINDOW_2,OFFICE_PRIVATE_4_REFERENCEPOINT1,4.7591E-003
 Sky Daylight Factors,Clear Sky,01/01,OFFICE_PRIVATE_4_DAYLIGHT,OFFICE_PRIVATE_4,OFFICE_PRIVATE_4_WINDOW_3,OFFICE_PRIVATE_4_REFERENCEPOINT1,3.9428E-003
 Sky Daylight Factors,Clear Turbid Sky,01/01,OFFICE_PRIVATE_4_DAYLIGHT,OFFICE_PRIVATE_4,OFFICE_PRIVATE_4_WINDOW_3,OFFICE_PRIVATE_4_REFERENCEPOINT1,3.0976E-003
 Sky Daylight Factors,Intermediate Sky,01/01,OFFICE_PRIVATE_4_DAYLIGHT,OFFICE_PRIVATE_4,OFFICE_PRIVATE_4_WINDOW_3,OFFICE_PRIVATE_4_REFERENCEPOINT1,2.7905E-003
 Sky Daylight Factors,Overcast Sky,01/01,OFFICE_PRIVATE_4_DAYLIGHT,OFFICE_PRIVATE_4,OFFICE_PRIVATE_4_WINDOW_3,OFFICE_PRIVATE_4_REFERENCEPOINT1,4.2875E-003
 Sky Daylight Factors,Clear Sky,01/01,OFFICE_PRIVATE_4_DAYLIGHT,OFFICE_PRIVATE_4,OFFICE_PRIVATE_4_WINDOW_4,OFFICE_PRIVATE_4_REFERENCEPOINT1,0.0000
 Sky Daylight Factors,Clear Turbid Sky,01/01,OFFICE_PRIVATE_4_DAYLIGHT,OFFICE_PRIVATE_4,OFFICE_PRIVATE_4_WINDOW_4,OFFICE_PRIVATE_4_REFERENCEPOINT1,0.0000
 Sky Daylight Factors,Intermediate Sky,01/01,OFFICE_PRIVATE_4_DAYLIGHT,OFFICE_PRIVATE_4,OFFICE_PRIVATE_4_WINDOW_4,OFFICE_PRIVATE_4_REFERENCEPOINT1,0.0000
 Sky Daylight Factors,Overcast Sky,01/01,OFFICE_PRIVATE_4_DAYLIGHT,OFFICE_PRIVATE_4,OFFICE_PRIVATE_4_WINDOW_4,OFFICE_PRIVATE_4_REFERENCEPOINT1,0.0000
Environment:WarmupDays,  8
! <Warmup Convergence Information>,Zone Name,Environment Type/Name,Average Warmup Temperature Difference {deltaC},Std Dev Warmup Temperature Difference {deltaC},Max Temperature Pass/Fail Convergence,Min Temperature Pass/Fail Convergence,Average Warmup Load Difference {W},Std Dev Warmup Load Difference {W},Heating Load Pass/Fail Convergence,Cooling Load Pass/Fail Convergence
 Warmup Convergence Information,LOBBY_0,RunPeriod: YEAR ROUND RUN PERIOD,5.9282662239E-002,7.0025656674E-002,Pass,Pass,6.4106725961E-003,7.6748713330E-003,Pass,Pass
 Warmup Convergence Information,CONFERENCE_0,RunPeriod: YEAR ROUND RUN PERIOD,0.1195765547,0.1361105613,Pass,Pass,1.1101726156E-002,1.2955499193E-002,Pass,Pass
 Warmup Convergence Information,BREAK_ROOM_0,RunPeriod: YEAR ROUND RUN PERIOD,9.4858618417E-002,0.1074927276,Pass,Pass,1.0216608246E-002,1.1753618561E-002,Pass,Pass
 Warmup Convergence Information,MECHANICAL_0,RunPeriod: YEAR ROUND RUN PERIOD,0.1029011092,0.1178775195,Pass,Pass,8.7997202240E-003,1.0361605997E-002,Pass,Pass
 Warmup Convergence Information,OFFICE_OPEN_0,RunPeriod: YEAR ROUND RUN PERIOD,4.1165062865E-002,4.4485499546E-002,Pass,Pass,5.3744616715E-003,5.8447395259E-003,Pass,Pass
 Warmup Convergence Information,OFFICE_PRIVATE_0,RunPeriod: YEAR ROUND RUN PERIOD,0.1857476930,0.2012096251,Pass,Pass,1.5911203022E-002,1.7720512816E-002,Pass,Pass
 Warmup Convergence Information,STORAGE_0,RunPeriod: YEAR ROUND RUN PERIOD,0.2003724731,0.2215514575,Pass,Pass,1.5258302114E-002,1.7271595670E-002,Pass,Pass
 Warmup Convergence Information,BREAK_ROOM_1,RunPeriod: YEAR ROUND RUN PERIOD,0.1208741573,0.1391759295,Pass,Pass,1.1271237270E-002,1.3201373277E-002,Pass,Pass
 Warmup Convergence Information,MECHANICAL_1,RunPeriod: YEAR ROUND RUN PERIOD,0.1113904970,0.1234669162,Pass,Pass,9.9068933074E-003,1.1102291118E-002,Pass,Pass
 Warmup Convergence Information,OFFICE_OPEN_1,RunPeriod: YEAR ROUND RUN PERIOD,3.8980290958E-002,4.3056849862E-002,Pass,Pass,4.9078476003E-003,5.4409157547E-003,Pass,Pass
 Warmup Convergence Information,STORAGE_1,RunPeriod: YEAR ROUND RUN PERIOD,0.1198620665,0.1310892501,Pass,Pass,1.0428690549E-002,1.1523922956E-002,Pass,Pass
 Warmup Convergence Information,LOBBY_2,RunPeriod: YEAR ROUND RUN PERIOD,9.3145262736E-002,0.1083621671,Pass,Pass,8.6863223917E-003,1.0221706646E-002,Pass,Pass
 Warmup Convergence Information,BREAK_ROOM_2,RunPeriod: YEAR ROUND RUN PERIOD,0.1220148353,0.1384223323,Pass,Pass,1.1558937908E-002,1.3332880104E-002,Pass,Pass
 Warmup Convergence Information,MECHANICAL_2,RunPeriod: YEAR ROUND RUN PERIOD,0.1389340732,0.1540315562,Pass,Pass,1.1521570988E-002,1.2977321846E-002,Pass,Pass
 Warmup Convergence Information,OFFICE_OPEN_2,RunPeriod: YEAR ROUND RUN PERIOD,3.6288269579E-002,4.2140438692E-002,Pass,Pass,4.5592992301E-003,5.3379232251E-003,Pass,Pass
 Warmup Convergence Information,OFFICE_PRIVATE_2,RunPeriod: YEAR ROUND RUN PERIOD,0.1109451415,0.1250681557,Pass,Pass,1.0408519677E-002,1.1896546387E-002,Pass,Pass
 Warmup Convergence Information,STORAGE_2,RunPeriod: YEAR ROUND RUN PERIOD,0.1432916442,0.1625254662,Pass,Pass,1.1546717805E-002,1.3294202856E-002,Pass,Pass
 Warmup Convergence Information,LOBBY_3,RunPeriod: YEAR ROUND RUN PERIOD,6.2526101704E-002,7.3755256010E-002,Pass,Pass,6.4516382319E-003,7.7000502711E-003,Pass,Pass
 Warmup Convergence Information,CONFERENCE_3,RunPeriod: YEAR ROUND RUN PERIOD,8.2227800412E-002,9.5178020551E-002,Pass,Pass,8.0018003616E-003,9.4902487877E-003,Pass,Pass
 Warmup Convergence Information,MECHANICAL_3,RunPeriod: YEAR ROUND RUN PERIOD,0.1667848179,0.1817711942,Pass,Pass,1.3397711009E-002,1.4905776927E-002,Pass,Pass
 Warmup Convergence Information,STORAGE_3,RunPeriod: YEAR ROUND RUN PERIOD,0.1549537837,0.1714162142,Pass,Pass,1.2259138728E-002,1.3743846365E-002,Pass,Pass
 Warmup Convergence Information,LOBBY_4,RunPeriod: YEAR ROUND RUN PERIOD,7.4528747094E-002,8.7102586476E-002,Pass,Pass,7.3278538500E-003,8.6604337542E-003,Pass,Pass
 Warmup Convergence Information,CONFERENCE_4,RunPeriod: YEAR ROUND RUN PERIOD,8.3813828633E-002,9.2729361193E-002,Pass,Pass,8.5988022702E-003,9.6056210981E-003,Pass,Pass
 Warmup Convergence Information,BREAK_ROOM_4,RunPeriod: YEAR ROUND RUN PERIOD,0.1135932718,0.1267495778,Pass,Pass,1.1064768017E-002,1.2514834015E-002,Pass,Pass
 Warmup Convergence Information,MECHANICAL_4,RunPeriod: YEAR ROUND RUN PERIOD,0.1354046084,0.1559998860,Pass,Pass,1.1003375260E-002,1.2895557516E-002,Pass,Pass
 Warmup Convergence Information,OFFICE_PRIVATE_4,RunPeriod: YEAR ROUND RUN PERIOD,0.1110748983,0.1227217771,Pass,Pass,1.0480297773E-002,1.1721832651E-002,Pass,Pass
 Warmup Convergence Information,STORAGE_4,RunPeriod: YEAR ROUND RUN PERIOD,0.1697741801,0.1834060216,Pass,Pass,1.3763404574E-002,1.5164137529E-002,Pass,Pass
! <Program Control Information:Threads/Parallel Sims>, Threading Supported,Maximum Number of Threads, Env Set Threads (OMP_NUM_THREADS), EP Env Set Threads (EP_OMP_NUM_THREADS), IDF Set Threads, Number of Threads Used (Interior Radiant Exchange), Number Nominal Surfaces, Number Parallel Sims
Program Control:Threads/Parallel Sims, No,1, N/A, N/A, N/A, N/A, N/A, N/A
End of Data
