Program Version,EnergyPlus, Version 24.2.0-94a887817b, YMD=2025.11.02 19:18
! This file shows details about the branches, nodes, and other
! elements of the flow connections.
! This file is intended for use in "debugging" potential problems
! that may also be detected by the program, but may be more easily
! identified by "eye".
! This file is also intended to support software which draws a
! schematic diagram of the HVAC system.
! ===============================================================
! #Nodes,<Number of Unique Nodes>
 #Nodes,297
! <Node>,<NodeNumber>,<Node Name>,<Node Fluid Type>,<# Times Node Referenced After Definition>
 Node,1,LOBBY_0_Z1_ADUOUTLET,Air,4
 Node,2,CONFERENCE_0_Z2_ADUOUTLET,Air,4
 Node,3,BREAK_ROOM_0_Z3_ADUOUTLET,Air,4
 Node,4,MECHANICAL_0_Z4_ADUOUTLET,Air,4
 Node,5,OFFICE_OPEN_0_Z5_ADUOUTLET,Air,4
 Node,6,OFFICE_PRIVATE_0_Z6_ADUOUTLET,Air,4
 Node,7,STORAGE_0_Z7_ADUOUTLET,Air,4
 Node,8,BREAK_ROOM_1_Z8_ADUOUTLET,Air,4
 Node,9,MECHANICAL_1_Z9_ADUOUTLET,Air,4
 Node,10,OFFICE_OPEN_1_Z10_ADUOUTLET,Air,4
 Node,11,STORAGE_1_Z11_ADUOUTLET,Air,4
 Node,12,LOBBY_2_Z12_ADUOUTLET,Air,4
 Node,13,BREAK_ROOM_2_Z13_ADUOUTLET,Air,4
 Node,14,MECHANICAL_2_Z14_ADUOUTLET,Air,4
 Node,15,OFFICE_OPEN_2_Z15_ADUOUTLET,Air,4
 Node,16,OFFICE_PRIVATE_2_Z16_ADUOUTLET,Air,4
 Node,17,STORAGE_2_Z17_ADUOUTLET,Air,4
 Node,18,LOBBY_3_Z18_ADUOUTLET,Air,4
 Node,19,CONFERENCE_3_Z19_ADUOUTLET,Air,4
 Node,20,MECHANICAL_3_Z20_ADUOUTLET,Air,4
 Node,21,STORAGE_3_Z21_ADUOUTLET,Air,4
 Node,22,LOBBY_4_Z22_ADUOUTLET,Air,4
 Node,23,CONFERENCE_4_Z23_ADUOUTLET,Air,4
 Node,24,BREAK_ROOM_4_Z24_ADUOUTLET,Air,4
 Node,25,MECHANICAL_4_Z25_ADUOUTLET,Air,4
 Node,26,OFFICE_PRIVATE_4_Z26_ADUOUTLET,Air,4
 Node,27,STORAGE_4_Z27_ADUOUTLET,Air,4
 Node,28,LOBBY_0_Z1_SUPPLYINLET,Air,3
 Node,29,LOBBY_0_Z1_COOLC-HEATCNODE,Air,6
 Node,30,LOBBY_0_Z1_HEATC-FANNODE,Air,5
 Node,31,LOBBY_0_Z1_SUPPLYEQUIPMENTOUTLETNODE,Air,3
 Node,32,CONFERENCE_0_Z2_SUPPLYINLET,Air,3
 Node,33,CONFERENCE_0_Z2_COOLC-HEATCNODE,Air,6
 Node,34,CONFERENCE_0_Z2_HEATC-FANNODE,Air,5
 Node,35,CONFERENCE_0_Z2_SUPPLYEQUIPMENTOUTLETNODE,Air,3
 Node,36,BREAK_ROOM_0_Z3_SUPPLYINLET,Air,3
 Node,37,BREAK_ROOM_0_Z3_COOLC-HEATCNODE,Air,6
 Node,38,BREAK_ROOM_0_Z3_HEATC-FANNODE,Air,5
 Node,39,BREAK_ROOM_0_Z3_SUPPLYEQUIPMENTOUTLETNODE,Air,3
 Node,40,MECHANICAL_0_Z4_SUPPLYINLET,Air,3
 Node,41,MECHANICAL_0_Z4_COOLC-HEATCNODE,Air,6
 Node,42,MECHANICAL_0_Z4_HEATC-FANNODE,Air,5
 Node,43,MECHANICAL_0_Z4_SUPPLYEQUIPMENTOUTLETNODE,Air,3
 Node,44,OFFICE_OPEN_0_Z5_SUPPLYINLET,Air,3
 Node,45,OFFICE_OPEN_0_Z5_COOLC-HEATCNODE,Air,6
 Node,46,OFFICE_OPEN_0_Z5_HEATC-FANNODE,Air,5
 Node,47,OFFICE_OPEN_0_Z5_SUPPLYEQUIPMENTOUTLETNODE,Air,3
 Node,48,OFFICE_PRIVATE_0_Z6_SUPPLYINLET,Air,3
 Node,49,OFFICE_PRIVATE_0_Z6_COOLC-HEATCNODE,Air,6
 Node,50,OFFICE_PRIVATE_0_Z6_HEATC-FANNODE,Air,5
 Node,51,OFFICE_PRIVATE_0_Z6_SUPPLYEQUIPMENTOUTLETNODE,Air,3
 Node,52,STORAGE_0_Z7_SUPPLYINLET,Air,3
 Node,53,STORAGE_0_Z7_COOLC-HEATCNODE,Air,6
 Node,54,STORAGE_0_Z7_HEATC-FANNODE,Air,5
 Node,55,STORAGE_0_Z7_SUPPLYEQUIPMENTOUTLETNODE,Air,3
 Node,56,BREAK_ROOM_1_Z8_SUPPLYINLET,Air,3
 Node,57,BREAK_ROOM_1_Z8_COOLC-HEATCNODE,Air,6
 Node,58,BREAK_ROOM_1_Z8_HEATC-FANNODE,Air,5
 Node,59,BREAK_ROOM_1_Z8_SUPPLYEQUIPMENTOUTLETNODE,Air,3
 Node,60,MECHANICAL_1_Z9_SUPPLYINLET,Air,3
 Node,61,MECHANICAL_1_Z9_COOLC-HEATCNODE,Air,6
 Node,62,MECHANICAL_1_Z9_HEATC-FANNODE,Air,5
 Node,63,MECHANICAL_1_Z9_SUPPLYEQUIPMENTOUTLETNODE,Air,3
 Node,64,OFFICE_OPEN_1_Z10_SUPPLYINLET,Air,3
 Node,65,OFFICE_OPEN_1_Z10_COOLC-HEATCNODE,Air,6
 Node,66,OFFICE_OPEN_1_Z10_HEATC-FANNODE,Air,5
 Node,67,OFFICE_OPEN_1_Z10_SUPPLYEQUIPMENTOUTLETNODE,Air,3
 Node,68,STORAGE_1_Z11_SUPPLYINLET,Air,3
 Node,69,STORAGE_1_Z11_COOLC-HEATCNODE,Air,6
 Node,70,STORAGE_1_Z11_HEATC-FANNODE,Air,5
 Node,71,STORAGE_1_Z11_SUPPLYEQUIPMENTOUTLETNODE,Air,3
 Node,72,LOBBY_2_Z12_SUPPLYINLET,Air,3
 Node,73,LOBBY_2_Z12_COOLC-HEATCNODE,Air,6
 Node,74,LOBBY_2_Z12_HEATC-FANNODE,Air,5
 Node,75,LOBBY_2_Z12_SUPPLYEQUIPMENTOUTLETNODE,Air,3
 Node,76,BREAK_ROOM_2_Z13_SUPPLYINLET,Air,3
 Node,77,BREAK_ROOM_2_Z13_COOLC-HEATCNODE,Air,6
 Node,78,BREAK_ROOM_2_Z13_HEATC-FANNODE,Air,5
 Node,79,BREAK_ROOM_2_Z13_SUPPLYEQUIPMENTOUTLETNODE,Air,3
 Node,80,MECHANICAL_2_Z14_SUPPLYINLET,Air,3
 Node,81,MECHANICAL_2_Z14_COOLC-HEATCNODE,Air,6
 Node,82,MECHANICAL_2_Z14_HEATC-FANNODE,Air,5
 Node,83,MECHANICAL_2_Z14_SUPPLYEQUIPMENTOUTLETNODE,Air,3
 Node,84,OFFICE_OPEN_2_Z15_SUPPLYINLET,Air,3
 Node,85,OFFICE_OPEN_2_Z15_COOLC-HEATCNODE,Air,6
 Node,86,OFFICE_OPEN_2_Z15_HEATC-FANNODE,Air,5
 Node,87,OFFICE_OPEN_2_Z15_SUPPLYEQUIPMENTOUTLETNODE,Air,3
 Node,88,OFFICE_PRIVATE_2_Z16_SUPPLYINLET,Air,3
 Node,89,OFFICE_PRIVATE_2_Z16_COOLC-HEATCNODE,Air,6
 Node,90,OFFICE_PRIVATE_2_Z16_HEATC-FANNODE,Air,5
 Node,91,OFFICE_PRIVATE_2_Z16_SUPPLYEQUIPMENTOUTLETNODE,Air,3
 Node,92,STORAGE_2_Z17_SUPPLYINLET,Air,3
 Node,93,STORAGE_2_Z17_COOLC-HEATCNODE,Air,6
 Node,94,STORAGE_2_Z17_HEATC-FANNODE,Air,5
 Node,95,STORAGE_2_Z17_SUPPLYEQUIPMENTOUTLETNODE,Air,3
 Node,96,LOBBY_3_Z18_SUPPLYINLET,Air,3
 Node,97,LOBBY_3_Z18_COOLC-HEATCNODE,Air,6
 Node,98,LOBBY_3_Z18_HEATC-FANNODE,Air,5
 Node,99,LOBBY_3_Z18_SUPPLYEQUIPMENTOUTLETNODE,Air,3
 Node,100,CONFERENCE_3_Z19_SUPPLYINLET,Air,3
 Node,101,CONFERENCE_3_Z19_COOLC-HEATCNODE,Air,6
 Node,102,CONFERENCE_3_Z19_HEATC-FANNODE,Air,5
 Node,103,CONFERENCE_3_Z19_SUPPLYEQUIPMENTOUTLETNODE,Air,3
 Node,104,MECHANICAL_3_Z20_SUPPLYINLET,Air,3
 Node,105,MECHANICAL_3_Z20_COOLC-HEATCNODE,Air,6
 Node,106,MECHANICAL_3_Z20_HEATC-FANNODE,Air,5
 Node,107,MECHANICAL_3_Z20_SUPPLYEQUIPMENTOUTLETNODE,Air,3
 Node,108,STORAGE_3_Z21_SUPPLYINLET,Air,3
 Node,109,STORAGE_3_Z21_COOLC-HEATCNODE,Air,6
 Node,110,STORAGE_3_Z21_HEATC-FANNODE,Air,5
 Node,111,STORAGE_3_Z21_SUPPLYEQUIPMENTOUTLETNODE,Air,3
 Node,112,LOBBY_4_Z22_SUPPLYINLET,Air,3
 Node,113,LOBBY_4_Z22_COOLC-HEATCNODE,Air,6
 Node,114,LOBBY_4_Z22_HEATC-FANNODE,Air,5
 Node,115,LOBBY_4_Z22_SUPPLYEQUIPMENTOUTLETNODE,Air,3
 Node,116,CONFERENCE_4_Z23_SUPPLYINLET,Air,3
 Node,117,CONFERENCE_4_Z23_COOLC-HEATCNODE,Air,6
 Node,118,CONFERENCE_4_Z23_HEATC-FANNODE,Air,5
 Node,119,CONFERENCE_4_Z23_SUPPLYEQUIPMENTOUTLETNODE,Air,3
 Node,120,BREAK_ROOM_4_Z24_SUPPLYINLET,Air,3
 Node,121,BREAK_ROOM_4_Z24_COOLC-HEATCNODE,Air,6
 Node,122,BREAK_ROOM_4_Z24_HEATC-FANNODE,Air,5
 Node,123,BREAK_ROOM_4_Z24_SUPPLYEQUIPMENTOUTLETNODE,Air,3
 Node,124,MECHANICAL_4_Z25_SUPPLYINLET,Air,3
 Node,125,MECHANICAL_4_Z25_COOLC-HEATCNODE,Air,6
 Node,126,MECHANICAL_4_Z25_HEATC-FANNODE,Air,5
 Node,127,MECHANICAL_4_Z25_SUPPLYEQUIPMENTOUTLETNODE,Air,3
 Node,128,OFFICE_PRIVATE_4_Z26_SUPPLYINLET,Air,3
 Node,129,OFFICE_PRIVATE_4_Z26_COOLC-HEATCNODE,Air,6
 Node,130,OFFICE_PRIVATE_4_Z26_HEATC-FANNODE,Air,5
 Node,131,OFFICE_PRIVATE_4_Z26_SUPPLYEQUIPMENTOUTLETNODE,Air,3
 Node,132,STORAGE_4_Z27_SUPPLYINLET,Air,3
 Node,133,STORAGE_4_Z27_COOLC-HEATCNODE,Air,6
 Node,134,STORAGE_4_Z27_HEATC-FANNODE,Air,5
 Node,135,STORAGE_4_Z27_SUPPLYEQUIPMENTOUTLETNODE,Air,3
 Node,136,LOBBY_0 AIR NODE,Air,0
 Node,137,LOBBY_0_Z1_RETURNAIR,Air,1
 Node,138,CONFERENCE_0 AIR NODE,Air,0
 Node,139,CONFERENCE_0_Z2_RETURNAIR,Air,1
 Node,140,BREAK_ROOM_0 AIR NODE,Air,0
 Node,141,BREAK_ROOM_0_Z3_RETURNAIR,Air,1
 Node,142,MECHANICAL_0 AIR NODE,Air,0
 Node,143,MECHANICAL_0_Z4_RETURNAIR,Air,1
 Node,144,OFFICE_OPEN_0 AIR NODE,Air,0
 Node,145,OFFICE_OPEN_0_Z5_RETURNAIR,Air,1
 Node,146,OFFICE_PRIVATE_0 AIR NODE,Air,0
 Node,147,OFFICE_PRIVATE_0_Z6_RETURNAIR,Air,1
 Node,148,STORAGE_0 AIR NODE,Air,0
 Node,149,STORAGE_0_Z7_RETURNAIR,Air,1
 Node,150,BREAK_ROOM_1 AIR NODE,Air,0
 Node,151,BREAK_ROOM_1_Z8_RETURNAIR,Air,1
 Node,152,MECHANICAL_1 AIR NODE,Air,0
 Node,153,MECHANICAL_1_Z9_RETURNAIR,Air,1
 Node,154,OFFICE_OPEN_1 AIR NODE,Air,0
 Node,155,OFFICE_OPEN_1_Z10_RETURNAIR,Air,1
 Node,156,STORAGE_1 AIR NODE,Air,0
 Node,157,STORAGE_1_Z11_RETURNAIR,Air,1
 Node,158,LOBBY_2 AIR NODE,Air,0
 Node,159,LOBBY_2_Z12_RETURNAIR,Air,1
 Node,160,BREAK_ROOM_2 AIR NODE,Air,0
 Node,161,BREAK_ROOM_2_Z13_RETURNAIR,Air,1
 Node,162,MECHANICAL_2 AIR NODE,Air,0
 Node,163,MECHANICAL_2_Z14_RETURNAIR,Air,1
 Node,164,OFFICE_OPEN_2 AIR NODE,Air,0
 Node,165,OFFICE_OPEN_2_Z15_RETURNAIR,Air,1
 Node,166,OFFICE_PRIVATE_2 AIR NODE,Air,0
 Node,167,OFFICE_PRIVATE_2_Z16_RETURNAIR,Air,1
 Node,168,STORAGE_2 AIR NODE,Air,0
 Node,169,STORAGE_2_Z17_RETURNAIR,Air,1
 Node,170,LOBBY_3 AIR NODE,Air,0
 Node,171,LOBBY_3_Z18_RETURNAIR,Air,1
 Node,172,CONFERENCE_3 AIR NODE,Air,0
 Node,173,CONFERENCE_3_Z19_RETURNAIR,Air,1
 Node,174,MECHANICAL_3 AIR NODE,Air,0
 Node,175,MECHANICAL_3_Z20_RETURNAIR,Air,1
 Node,176,STORAGE_3 AIR NODE,Air,0
 Node,177,STORAGE_3_Z21_RETURNAIR,Air,1
 Node,178,LOBBY_4 AIR NODE,Air,0
 Node,179,LOBBY_4_Z22_RETURNAIR,Air,1
 Node,180,CONFERENCE_4 AIR NODE,Air,0
 Node,181,CONFERENCE_4_Z23_RETURNAIR,Air,1
 Node,182,BREAK_ROOM_4 AIR NODE,Air,0
 Node,183,BREAK_ROOM_4_Z24_RETURNAIR,Air,1
 Node,184,MECHANICAL_4 AIR NODE,Air,0
 Node,185,MECHANICAL_4_Z25_RETURNAIR,Air,1
 Node,186,OFFICE_PRIVATE_4 AIR NODE,Air,0
 Node,187,OFFICE_PRIVATE_4_Z26_RETURNAIR,Air,1
 Node,188,STORAGE_4 AIR NODE,Air,0
 Node,189,STORAGE_4_Z27_RETURNAIR,Air,1
 Node,190,LOBBY_0_Z1_ZONEEQUIPMENTINLET,Air,2
 Node,191,CONFERENCE_0_Z2_ZONEEQUIPMENTINLET,Air,2
 Node,192,BREAK_ROOM_0_Z3_ZONEEQUIPMENTINLET,Air,2
 Node,193,MECHANICAL_0_Z4_ZONEEQUIPMENTINLET,Air,2
 Node,194,OFFICE_OPEN_0_Z5_ZONEEQUIPMENTINLET,Air,2
 Node,195,OFFICE_PRIVATE_0_Z6_ZONEEQUIPMENTINLET,Air,2
 Node,196,STORAGE_0_Z7_ZONEEQUIPMENTINLET,Air,2
 Node,197,BREAK_ROOM_1_Z8_ZONEEQUIPMENTINLET,Air,2
 Node,198,MECHANICAL_1_Z9_ZONEEQUIPMENTINLET,Air,2
 Node,199,OFFICE_OPEN_1_Z10_ZONEEQUIPMENTINLET,Air,2
 Node,200,STORAGE_1_Z11_ZONEEQUIPMENTINLET,Air,2
 Node,201,LOBBY_2_Z12_ZONEEQUIPMENTINLET,Air,2
 Node,202,BREAK_ROOM_2_Z13_ZONEEQUIPMENTINLET,Air,2
 Node,203,MECHANICAL_2_Z14_ZONEEQUIPMENTINLET,Air,2
 Node,204,OFFICE_OPEN_2_Z15_ZONEEQUIPMENTINLET,Air,2
 Node,205,OFFICE_PRIVATE_2_Z16_ZONEEQUIPMENTINLET,Air,2
 Node,206,STORAGE_2_Z17_ZONEEQUIPMENTINLET,Air,2
 Node,207,LOBBY_3_Z18_ZONEEQUIPMENTINLET,Air,2
 Node,208,CONFERENCE_3_Z19_ZONEEQUIPMENTINLET,Air,2
 Node,209,MECHANICAL_3_Z20_ZONEEQUIPMENTINLET,Air,2
 Node,210,STORAGE_3_Z21_ZONEEQUIPMENTINLET,Air,2
 Node,211,LOBBY_4_Z22_ZONEEQUIPMENTINLET,Air,2
 Node,212,CONFERENCE_4_Z23_ZONEEQUIPMENTINLET,Air,2
 Node,213,BREAK_ROOM_4_Z24_ZONEEQUIPMENTINLET,Air,2
 Node,214,MECHANICAL_4_Z25_ZONEEQUIPMENTINLET,Air,2
 Node,215,OFFICE_PRIVATE_4_Z26_ZONEEQUIPMENTINLET,Air,2
 Node,216,STORAGE_4_Z27_ZONEEQUIPMENTINLET,Air,2
 Node,217,LOBBY_0_Z1_ZONEEQUIPMENTOUTLETNODE,Air,2
 Node,218,CONFERENCE_0_Z2_ZONEEQUIPMENTOUTLETNODE,Air,2
 Node,219,BREAK_ROOM_0_Z3_ZONEEQUIPMENTOUTLETNODE,Air,2
 Node,220,MECHANICAL_0_Z4_ZONEEQUIPMENTOUTLETNODE,Air,2
 Node,221,OFFICE_OPEN_0_Z5_ZONEEQUIPMENTOUTLETNODE,Air,2
 Node,222,OFFICE_PRIVATE_0_Z6_ZONEEQUIPMENTOUTLETNODE,Air,2
 Node,223,STORAGE_0_Z7_ZONEEQUIPMENTOUTLETNODE,Air,2
 Node,224,BREAK_ROOM_1_Z8_ZONEEQUIPMENTOUTLETNODE,Air,2
 Node,225,MECHANICAL_1_Z9_ZONEEQUIPMENTOUTLETNODE,Air,2
 Node,226,OFFICE_OPEN_1_Z10_ZONEEQUIPMENTOUTLETNODE,Air,2
 Node,227,STORAGE_1_Z11_ZONEEQUIPMENTOUTLETNODE,Air,2
 Node,228,LOBBY_2_Z12_ZONEEQUIPMENTOUTLETNODE,Air,2
 Node,229,BREAK_ROOM_2_Z13_ZONEEQUIPMENTOUTLETNODE,Air,2
 Node,230,MECHANICAL_2_Z14_ZONEEQUIPMENTOUTLETNODE,Air,2
 Node,231,OFFICE_OPEN_2_Z15_ZONEEQUIPMENTOUTLETNODE,Air,2
 Node,232,OFFICE_PRIVATE_2_Z16_ZONEEQUIPMENTOUTLETNODE,Air,2
 Node,233,STORAGE_2_Z17_ZONEEQUIPMENTOUTLETNODE,Air,2
 Node,234,LOBBY_3_Z18_ZONEEQUIPMENTOUTLETNODE,Air,2
 Node,235,CONFERENCE_3_Z19_ZONEEQUIPMENTOUTLETNODE,Air,2
 Node,236,MECHANICAL_3_Z20_ZONEEQUIPMENTOUTLETNODE,Air,2
 Node,237,STORAGE_3_Z21_ZONEEQUIPMENTOUTLETNODE,Air,2
 Node,238,LOBBY_4_Z22_ZONEEQUIPMENTOUTLETNODE,Air,2
 Node,239,CONFERENCE_4_Z23_ZONEEQUIPMENTOUTLETNODE,Air,2
 Node,240,BREAK_ROOM_4_Z24_ZONEEQUIPMENTOUTLETNODE,Air,2
 Node,241,MECHANICAL_4_Z25_ZONEEQUIPMENTOUTLETNODE,Air,2
 Node,242,OFFICE_PRIVATE_4_Z26_ZONEEQUIPMENTOUTLETNODE,Air,2
 Node,243,STORAGE_4_Z27_ZONEEQUIPMENTOUTLETNODE,Air,2
 Node,244,LOBBY_0_Z1_TERMINALINLET,Air,1
 Node,245,CONFERENCE_0_Z2_TERMINALINLET,Air,1
 Node,246,BREAK_ROOM_0_Z3_TERMINALINLET,Air,1
 Node,247,MECHANICAL_0_Z4_TERMINALINLET,Air,1
 Node,248,OFFICE_OPEN_0_Z5_TERMINALINLET,Air,1
 Node,249,OFFICE_PRIVATE_0_Z6_TERMINALINLET,Air,1
 Node,250,STORAGE_0_Z7_TERMINALINLET,Air,1
 Node,251,BREAK_ROOM_1_Z8_TERMINALINLET,Air,1
 Node,252,MECHANICAL_1_Z9_TERMINALINLET,Air,1
 Node,253,OFFICE_OPEN_1_Z10_TERMINALINLET,Air,1
 Node,254,STORAGE_1_Z11_TERMINALINLET,Air,1
 Node,255,LOBBY_2_Z12_TERMINALINLET,Air,1
 Node,256,BREAK_ROOM_2_Z13_TERMINALINLET,Air,1
 Node,257,MECHANICAL_2_Z14_TERMINALINLET,Air,1
 Node,258,OFFICE_OPEN_2_Z15_TERMINALINLET,Air,1
 Node,259,OFFICE_PRIVATE_2_Z16_TERMINALINLET,Air,1
 Node,260,STORAGE_2_Z17_TERMINALINLET,Air,1
 Node,261,LOBBY_3_Z18_TERMINALINLET,Air,1
 Node,262,CONFERENCE_3_Z19_TERMINALINLET,Air,1
 Node,263,MECHANICAL_3_Z20_TERMINALINLET,Air,1
 Node,264,STORAGE_3_Z21_TERMINALINLET,Air,1
 Node,265,LOBBY_4_Z22_TERMINALINLET,Air,1
 Node,266,CONFERENCE_4_Z23_TERMINALINLET,Air,1
 Node,267,BREAK_ROOM_4_Z24_TERMINALINLET,Air,1
 Node,268,MECHANICAL_4_Z25_TERMINALINLET,Air,1
 Node,269,OFFICE_PRIVATE_4_Z26_TERMINALINLET,Air,1
 Node,270,STORAGE_4_Z27_TERMINALINLET,Air,1
 Node,271,LOBBY_0_Z1_TERMINALOUTLET,Air,1
 Node,272,CONFERENCE_0_Z2_TERMINALOUTLET,Air,1
 Node,273,BREAK_ROOM_0_Z3_TERMINALOUTLET,Air,1
 Node,274,MECHANICAL_0_Z4_TERMINALOUTLET,Air,1
 Node,275,OFFICE_OPEN_0_Z5_TERMINALOUTLET,Air,1
 Node,276,OFFICE_PRIVATE_0_Z6_TERMINALOUTLET,Air,1
 Node,277,STORAGE_0_Z7_TERMINALOUTLET,Air,1
 Node,278,BREAK_ROOM_1_Z8_TERMINALOUTLET,Air,1
 Node,279,MECHANICAL_1_Z9_TERMINALOUTLET,Air,1
 Node,280,OFFICE_OPEN_1_Z10_TERMINALOUTLET,Air,1
 Node,281,STORAGE_1_Z11_TERMINALOUTLET,Air,1
 Node,282,LOBBY_2_Z12_TERMINALOUTLET,Air,1
 Node,283,BREAK_ROOM_2_Z13_TERMINALOUTLET,Air,1
 Node,284,MECHANICAL_2_Z14_TERMINALOUTLET,Air,1
 Node,285,OFFICE_OPEN_2_Z15_TERMINALOUTLET,Air,1
 Node,286,OFFICE_PRIVATE_2_Z16_TERMINALOUTLET,Air,1
 Node,287,STORAGE_2_Z17_TERMINALOUTLET,Air,1
 Node,288,LOBBY_3_Z18_TERMINALOUTLET,Air,1
 Node,289,CONFERENCE_3_Z19_TERMINALOUTLET,Air,1
 Node,290,MECHANICAL_3_Z20_TERMINALOUTLET,Air,1
 Node,291,STORAGE_3_Z21_TERMINALOUTLET,Air,1
 Node,292,LOBBY_4_Z22_TERMINALOUTLET,Air,1
 Node,293,CONFERENCE_4_Z23_TERMINALOUTLET,Air,1
 Node,294,BREAK_ROOM_4_Z24_TERMINALOUTLET,Air,1
 Node,295,MECHANICAL_4_Z25_TERMINALOUTLET,Air,1
 Node,296,OFFICE_PRIVATE_4_Z26_TERMINALOUTLET,Air,1
 Node,297,STORAGE_4_Z27_TERMINALOUTLET,Air,1
! ===============================================================
! Suspicious nodes have 0 references.  It is normal for some nodes, however.
! Listing nodes with 0 references (culled from previous list):
! <Suspicious Node>,<NodeNumber>,<Node Name>,<Node Fluid Type>,<# Times Node Referenced After Definition>
 Suspicious Node,136,LOBBY_0 AIR NODE,Air,0
 Suspicious Node,138,CONFERENCE_0 AIR NODE,Air,0
 Suspicious Node,140,BREAK_ROOM_0 AIR NODE,Air,0
 Suspicious Node,142,MECHANICAL_0 AIR NODE,Air,0
 Suspicious Node,144,OFFICE_OPEN_0 AIR NODE,Air,0
 Suspicious Node,146,OFFICE_PRIVATE_0 AIR NODE,Air,0
 Suspicious Node,148,STORAGE_0 AIR NODE,Air,0
 Suspicious Node,150,BREAK_ROOM_1 AIR NODE,Air,0
 Suspicious Node,152,MECHANICAL_1 AIR NODE,Air,0
 Suspicious Node,154,OFFICE_OPEN_1 AIR NODE,Air,0
 Suspicious Node,156,STORAGE_1 AIR NODE,Air,0
 Suspicious Node,158,LOBBY_2 AIR NODE,Air,0
 Suspicious Node,160,BREAK_ROOM_2 AIR NODE,Air,0
 Suspicious Node,162,MECHANICAL_2 AIR NODE,Air,0
 Suspicious Node,164,OFFICE_OPEN_2 AIR NODE,Air,0
 Suspicious Node,166,OFFICE_PRIVATE_2 AIR NODE,Air,0
 Suspicious Node,168,STORAGE_2 AIR NODE,Air,0
 Suspicious Node,170,LOBBY_3 AIR NODE,Air,0
 Suspicious Node,172,CONFERENCE_3 AIR NODE,Air,0
 Suspicious Node,174,MECHANICAL_3 AIR NODE,Air,0
 Suspicious Node,176,STORAGE_3 AIR NODE,Air,0
 Suspicious Node,178,LOBBY_4 AIR NODE,Air,0
 Suspicious Node,180,CONFERENCE_4 AIR NODE,Air,0
 Suspicious Node,182,BREAK_ROOM_4 AIR NODE,Air,0
 Suspicious Node,184,MECHANICAL_4 AIR NODE,Air,0
 Suspicious Node,186,OFFICE_PRIVATE_4 AIR NODE,Air,0
 Suspicious Node,188,STORAGE_4 AIR NODE,Air,0
! ===============================================================
! <#Branch Lists>,<Number of Branch Lists>
 #Branch Lists,27
! <Branch List>,<Branch List Count>,<Branch List Name>,<Loop Name>,<Loop Type>,<Number of Branches>
! <Branch>,<Branch Count>,<Branch Name>,<Loop Name>,<Loop Type>,<Branch Inlet Node Name>,<Branch Outlet Node Name>
 Branch List,1,LOBBY_0_Z1_BRANCHLIST,LOBBY_0_Z1_AIRLOOP,Air,1
   Branch,1,LOBBY_0_Z1_MAINBRANCH,LOBBY_0_Z1_AIRLOOP,Air,LOBBY_0_Z1_SUPPLYINLET,LOBBY_0_Z1_SUPPLYEQUIPMENTOUTLETNODE
 Branch List,2,CONFERENCE_0_Z2_BRANCHLIST,CONFERENCE_0_Z2_AIRLOOP,Air,1
   Branch,1,CONFERENCE_0_Z2_MAINBRANCH,CONFERENCE_0_Z2_AIRLOOP,Air,CONFERENCE_0_Z2_SUPPLYINLET,CONFERENCE_0_Z2_SUPPLYEQUIPMENTOUTLETNODE
 Branch List,3,BREAK_ROOM_0_Z3_BRANCHLIST,BREAK_ROOM_0_Z3_AIRLOOP,Air,1
   Branch,1,BREAK_ROOM_0_Z3_MAINBRANCH,BREAK_ROOM_0_Z3_AIRLOOP,Air,BREAK_ROOM_0_Z3_SUPPLYINLET,BREAK_ROOM_0_Z3_SUPPLYEQUIPMENTOUTLETNODE
 Branch List,4,MECHANICAL_0_Z4_BRANCHLIST,MECHANICAL_0_Z4_AIRLOOP,Air,1
   Branch,1,MECHANICAL_0_Z4_MAINBRANCH,MECHANICAL_0_Z4_AIRLOOP,Air,MECHANICAL_0_Z4_SUPPLYINLET,MECHANICAL_0_Z4_SUPPLYEQUIPMENTOUTLETNODE
 Branch List,5,OFFICE_OPEN_0_Z5_BRANCHLIST,OFFICE_OPEN_0_Z5_AIRLOOP,Air,1
   Branch,1,OFFICE_OPEN_0_Z5_MAINBRANCH,OFFICE_OPEN_0_Z5_AIRLOOP,Air,OFFICE_OPEN_0_Z5_SUPPLYINLET,OFFICE_OPEN_0_Z5_SUPPLYEQUIPMENTOUTLETNODE
 Branch List,6,OFFICE_PRIVATE_0_Z6_BRANCHLIST,OFFICE_PRIVATE_0_Z6_AIRLOOP,Air,1
   Branch,1,OFFICE_PRIVATE_0_Z6_MAINBRANCH,OFFICE_PRIVATE_0_Z6_AIRLOOP,Air,OFFICE_PRIVATE_0_Z6_SUPPLYINLET,OFFICE_PRIVATE_0_Z6_SUPPLYEQUIPMENTOUTLETNODE
 Branch List,7,STORAGE_0_Z7_BRANCHLIST,STORAGE_0_Z7_AIRLOOP,Air,1
   Branch,1,STORAGE_0_Z7_MAINBRANCH,STORAGE_0_Z7_AIRLOOP,Air,STORAGE_0_Z7_SUPPLYINLET,STORAGE_0_Z7_SUPPLYEQUIPMENTOUTLETNODE
 Branch List,8,BREAK_ROOM_1_Z8_BRANCHLIST,BREAK_ROOM_1_Z8_AIRLOOP,Air,1
   Branch,1,BREAK_ROOM_1_Z8_MAINBRANCH,BREAK_ROOM_1_Z8_AIRLOOP,Air,BREAK_ROOM_1_Z8_SUPPLYINLET,BREAK_ROOM_1_Z8_SUPPLYEQUIPMENTOUTLETNODE
 Branch List,9,MECHANICAL_1_Z9_BRANCHLIST,MECHANICAL_1_Z9_AIRLOOP,Air,1
   Branch,1,MECHANICAL_1_Z9_MAINBRANCH,MECHANICAL_1_Z9_AIRLOOP,Air,MECHANICAL_1_Z9_SUPPLYINLET,MECHANICAL_1_Z9_SUPPLYEQUIPMENTOUTLETNODE
 Branch List,10,OFFICE_OPEN_1_Z10_BRANCHLIST,OFFICE_OPEN_1_Z10_AIRLOOP,Air,1
   Branch,1,OFFICE_OPEN_1_Z10_MAINBRANCH,OFFICE_OPEN_1_Z10_AIRLOOP,Air,OFFICE_OPEN_1_Z10_SUPPLYINLET,OFFICE_OPEN_1_Z10_SUPPLYEQUIPMENTOUTLETNODE
 Branch List,11,STORAGE_1_Z11_BRANCHLIST,STORAGE_1_Z11_AIRLOOP,Air,1
   Branch,1,STORAGE_1_Z11_MAINBRANCH,STORAGE_1_Z11_AIRLOOP,Air,STORAGE_1_Z11_SUPPLYINLET,STORAGE_1_Z11_SUPPLYEQUIPMENTOUTLETNODE
 Branch List,12,LOBBY_2_Z12_BRANCHLIST,LOBBY_2_Z12_AIRLOOP,Air,1
   Branch,1,LOBBY_2_Z12_MAINBRANCH,LOBBY_2_Z12_AIRLOOP,Air,LOBBY_2_Z12_SUPPLYINLET,LOBBY_2_Z12_SUPPLYEQUIPMENTOUTLETNODE
 Branch List,13,BREAK_ROOM_2_Z13_BRANCHLIST,BREAK_ROOM_2_Z13_AIRLOOP,Air,1
   Branch,1,BREAK_ROOM_2_Z13_MAINBRANCH,BREAK_ROOM_2_Z13_AIRLOOP,Air,BREAK_ROOM_2_Z13_SUPPLYINLET,BREAK_ROOM_2_Z13_SUPPLYEQUIPMENTOUTLETNODE
 Branch List,14,MECHANICAL_2_Z14_BRANCHLIST,MECHANICAL_2_Z14_AIRLOOP,Air,1
   Branch,1,MECHANICAL_2_Z14_MAINBRANCH,MECHANICAL_2_Z14_AIRLOOP,Air,MECHANICAL_2_Z14_SUPPLYINLET,MECHANICAL_2_Z14_SUPPLYEQUIPMENTOUTLETNODE
 Branch List,15,OFFICE_OPEN_2_Z15_BRANCHLIST,OFFICE_OPEN_2_Z15_AIRLOOP,Air,1
   Branch,1,OFFICE_OPEN_2_Z15_MAINBRANCH,OFFICE_OPEN_2_Z15_AIRLOOP,Air,OFFICE_OPEN_2_Z15_SUPPLYINLET,OFFICE_OPEN_2_Z15_SUPPLYEQUIPMENTOUTLETNODE
 Branch List,16,OFFICE_PRIVATE_2_Z16_BRANCHLIST,OFFICE_PRIVATE_2_Z16_AIRLOOP,Air,1
   Branch,1,OFFICE_PRIVATE_2_Z16_MAINBRANCH,OFFICE_PRIVATE_2_Z16_AIRLOOP,Air,OFFICE_PRIVATE_2_Z16_SUPPLYINLET,OFFICE_PRIVATE_2_Z16_SUPPLYEQUIPMENTOUTLETNODE
 Branch List,17,STORAGE_2_Z17_BRANCHLIST,STORAGE_2_Z17_AIRLOOP,Air,1
   Branch,1,STORAGE_2_Z17_MAINBRANCH,STORAGE_2_Z17_AIRLOOP,Air,STORAGE_2_Z17_SUPPLYINLET,STORAGE_2_Z17_SUPPLYEQUIPMENTOUTLETNODE
 Branch List,18,LOBBY_3_Z18_BRANCHLIST,LOBBY_3_Z18_AIRLOOP,Air,1
   Branch,1,LOBBY_3_Z18_MAINBRANCH,LOBBY_3_Z18_AIRLOOP,Air,LOBBY_3_Z18_SUPPLYINLET,LOBBY_3_Z18_SUPPLYEQUIPMENTOUTLETNODE
 Branch List,19,CONFERENCE_3_Z19_BRANCHLIST,CONFERENCE_3_Z19_AIRLOOP,Air,1
   Branch,1,CONFERENCE_3_Z19_MAINBRANCH,CONFERENCE_3_Z19_AIRLOOP,Air,CONFERENCE_3_Z19_SUPPLYINLET,CONFERENCE_3_Z19_SUPPLYEQUIPMENTOUTLETNODE
 Branch List,20,MECHANICAL_3_Z20_BRANCHLIST,MECHANICAL_3_Z20_AIRLOOP,Air,1
   Branch,1,MECHANICAL_3_Z20_MAINBRANCH,MECHANICAL_3_Z20_AIRLOOP,Air,MECHANICAL_3_Z20_SUPPLYINLET,MECHANICAL_3_Z20_SUPPLYEQUIPMENTOUTLETNODE
 Branch List,21,STORAGE_3_Z21_BRANCHLIST,STORAGE_3_Z21_AIRLOOP,Air,1
   Branch,1,STORAGE_3_Z21_MAINBRANCH,STORAGE_3_Z21_AIRLOOP,Air,STORAGE_3_Z21_SUPPLYINLET,STORAGE_3_Z21_SUPPLYEQUIPMENTOUTLETNODE
 Branch List,22,LOBBY_4_Z22_BRANCHLIST,LOBBY_4_Z22_AIRLOOP,Air,1
   Branch,1,LOBBY_4_Z22_MAINBRANCH,LOBBY_4_Z22_AIRLOOP,Air,LOBBY_4_Z22_SUPPLYINLET,LOBBY_4_Z22_SUPPLYEQUIPMENTOUTLETNODE
 Branch List,23,CONFERENCE_4_Z23_BRANCHLIST,CONFERENCE_4_Z23_AIRLOOP,Air,1
   Branch,1,CONFERENCE_4_Z23_MAINBRANCH,CONFERENCE_4_Z23_AIRLOOP,Air,CONFERENCE_4_Z23_SUPPLYINLET,CONFERENCE_4_Z23_SUPPLYEQUIPMENTOUTLETNODE
 Branch List,24,BREAK_ROOM_4_Z24_BRANCHLIST,BREAK_ROOM_4_Z24_AIRLOOP,Air,1
   Branch,1,BREAK_ROOM_4_Z24_MAINBRANCH,BREAK_ROOM_4_Z24_AIRLOOP,Air,BREAK_ROOM_4_Z24_SUPPLYINLET,BREAK_ROOM_4_Z24_SUPPLYEQUIPMENTOUTLETNODE
 Branch List,25,MECHANICAL_4_Z25_BRANCHLIST,MECHANICAL_4_Z25_AIRLOOP,Air,1
   Branch,1,MECHANICAL_4_Z25_MAINBRANCH,MECHANICAL_4_Z25_AIRLOOP,Air,MECHANICAL_4_Z25_SUPPLYINLET,MECHANICAL_4_Z25_SUPPLYEQUIPMENTOUTLETNODE
 Branch List,26,OFFICE_PRIVATE_4_Z26_BRANCHLIST,OFFICE_PRIVATE_4_Z26_AIRLOOP,Air,1
   Branch,1,OFFICE_PRIVATE_4_Z26_MAINBRANCH,OFFICE_PRIVATE_4_Z26_AIRLOOP,Air,OFFICE_PRIVATE_4_Z26_SUPPLYINLET,OFFICE_PRIVATE_4_Z26_SUPPLYEQUIPMENTOUTLETNODE
 Branch List,27,STORAGE_4_Z27_BRANCHLIST,STORAGE_4_Z27_AIRLOOP,Air,1
   Branch,1,STORAGE_4_Z27_MAINBRANCH,STORAGE_4_Z27_AIRLOOP,Air,STORAGE_4_Z27_SUPPLYINLET,STORAGE_4_Z27_SUPPLYEQUIPMENTOUTLETNODE
! ===============================================================
! <#Supply Air Paths>,<Number of Supply Air Paths>
 #Supply Air Paths,27
! <Supply Air Path>,<Supply Air Path Count>,<Supply Air Path Name>,<AirLoopHVAC Name>
! <#Components on Supply Air Path>,<Number of Components>
! <Supply Air Path Component>,<Component Count>,<Component Type>,<Component Name>,<AirLoopHVAC Name>
! <#Outlet Nodes on Supply Air Path Component>,<Number of Nodes>
! <Supply Air Path Component Nodes>,<Node Count>,<Component Type>,<Component Name>,<Inlet Node Name>,<Outlet Node Name>,<AirLoopHVAC Name>
 Supply Air Path,1,LOBBY_0_Z1,LOBBY_0_Z1_AIRLOOP
   #Components on Supply Air Path,1
   Supply Air Path Component,1,AIRLOOPHVAC:ZONESPLITTER,LOBBY_0_Z1_SUPPLYSPLITTER,LOBBY_0_Z1_AIRLOOP
     #Outlet Nodes on Supply Air Path Component,1
     Supply Air Path Component Nodes,1,AIRLOOPHVAC:ZONESPLITTER,LOBBY_0_Z1_SUPPLYSPLITTER,LOBBY_0_Z1_ZONEEQUIPMENTINLET,LOBBY_0_Z1_TERMINALINLET,LOBBY_0_Z1_AIRLOOP
! <#Nodes on Supply Air Path>,<Number of Nodes>
! <Supply Air Path Node>,<Node Type>,<Node Count>,<Node Name>,<AirLoopHVAC Name>
#Nodes on Supply Air Path,2
   Supply Air Path Node,Inlet Node,1,LOBBY_0_Z1_ZONEEQUIPMENTINLET,LOBBY_0_Z1_AIRLOOP
   Supply Air Path Node,Outlet Node,2,LOBBY_0_Z1_TERMINALINLET,LOBBY_0_Z1_AIRLOOP
 Supply Air Path,2,CONFERENCE_0_Z2,CONFERENCE_0_Z2_AIRLOOP
   #Components on Supply Air Path,1
   Supply Air Path Component,1,AIRLOOPHVAC:ZONESPLITTER,CONFERENCE_0_Z2_SUPPLYSPLITTER,CONFERENCE_0_Z2_AIRLOOP
     #Outlet Nodes on Supply Air Path Component,1
     Supply Air Path Component Nodes,1,AIRLOOPHVAC:ZONESPLITTER,CONFERENCE_0_Z2_SUPPLYSPLITTER,CONFERENCE_0_Z2_ZONEEQUIPMENTINLET,CONFERENCE_0_Z2_TERMINALINLET,CONFERENCE_0_Z2_AIRLOOP
! <#Nodes on Supply Air Path>,<Number of Nodes>
! <Supply Air Path Node>,<Node Type>,<Node Count>,<Node Name>,<AirLoopHVAC Name>
#Nodes on Supply Air Path,2
   Supply Air Path Node,Inlet Node,1,CONFERENCE_0_Z2_ZONEEQUIPMENTINLET,CONFERENCE_0_Z2_AIRLOOP
   Supply Air Path Node,Outlet Node,2,CONFERENCE_0_Z2_TERMINALINLET,CONFERENCE_0_Z2_AIRLOOP
 Supply Air Path,3,BREAK_ROOM_0_Z3,BREAK_ROOM_0_Z3_AIRLOOP
   #Components on Supply Air Path,1
   Supply Air Path Component,1,AIRLOOPHVAC:ZONESPLITTER,BREAK_ROOM_0_Z3_SUPPLYSPLITTER,BREAK_ROOM_0_Z3_AIRLOOP
     #Outlet Nodes on Supply Air Path Component,1
     Supply Air Path Component Nodes,1,AIRLOOPHVAC:ZONESPLITTER,BREAK_ROOM_0_Z3_SUPPLYSPLITTER,BREAK_ROOM_0_Z3_ZONEEQUIPMENTINLET,BREAK_ROOM_0_Z3_TERMINALINLET,BREAK_ROOM_0_Z3_AIRLOOP
! <#Nodes on Supply Air Path>,<Number of Nodes>
! <Supply Air Path Node>,<Node Type>,<Node Count>,<Node Name>,<AirLoopHVAC Name>
#Nodes on Supply Air Path,2
   Supply Air Path Node,Inlet Node,1,BREAK_ROOM_0_Z3_ZONEEQUIPMENTINLET,BREAK_ROOM_0_Z3_AIRLOOP
   Supply Air Path Node,Outlet Node,2,BREAK_ROOM_0_Z3_TERMINALINLET,BREAK_ROOM_0_Z3_AIRLOOP
 Supply Air Path,4,MECHANICAL_0_Z4,MECHANICAL_0_Z4_AIRLOOP
   #Components on Supply Air Path,1
   Supply Air Path Component,1,AIRLOOPHVAC:ZONESPLITTER,MECHANICAL_0_Z4_SUPPLYSPLITTER,MECHANICAL_0_Z4_AIRLOOP
     #Outlet Nodes on Supply Air Path Component,1
     Supply Air Path Component Nodes,1,AIRLOOPHVAC:ZONESPLITTER,MECHANICAL_0_Z4_SUPPLYSPLITTER,MECHANICAL_0_Z4_ZONEEQUIPMENTINLET,MECHANICAL_0_Z4_TERMINALINLET,MECHANICAL_0_Z4_AIRLOOP
! <#Nodes on Supply Air Path>,<Number of Nodes>
! <Supply Air Path Node>,<Node Type>,<Node Count>,<Node Name>,<AirLoopHVAC Name>
#Nodes on Supply Air Path,2
   Supply Air Path Node,Inlet Node,1,MECHANICAL_0_Z4_ZONEEQUIPMENTINLET,MECHANICAL_0_Z4_AIRLOOP
   Supply Air Path Node,Outlet Node,2,MECHANICAL_0_Z4_TERMINALINLET,MECHANICAL_0_Z4_AIRLOOP
 Supply Air Path,5,OFFICE_OPEN_0_Z5,OFFICE_OPEN_0_Z5_AIRLOOP
   #Components on Supply Air Path,1
   Supply Air Path Component,1,AIRLOOPHVAC:ZONESPLITTER,OFFICE_OPEN_0_Z5_SUPPLYSPLITTER,OFFICE_OPEN_0_Z5_AIRLOOP
     #Outlet Nodes on Supply Air Path Component,1
     Supply Air Path Component Nodes,1,AIRLOOPHVAC:ZONESPLITTER,OFFICE_OPEN_0_Z5_SUPPLYSPLITTER,OFFICE_OPEN_0_Z5_ZONEEQUIPMENTINLET,OFFICE_OPEN_0_Z5_TERMINALINLET,OFFICE_OPEN_0_Z5_AIRLOOP
! <#Nodes on Supply Air Path>,<Number of Nodes>
! <Supply Air Path Node>,<Node Type>,<Node Count>,<Node Name>,<AirLoopHVAC Name>
#Nodes on Supply Air Path,2
   Supply Air Path Node,Inlet Node,1,OFFICE_OPEN_0_Z5_ZONEEQUIPMENTINLET,OFFICE_OPEN_0_Z5_AIRLOOP
   Supply Air Path Node,Outlet Node,2,OFFICE_OPEN_0_Z5_TERMINALINLET,OFFICE_OPEN_0_Z5_AIRLOOP
 Supply Air Path,6,OFFICE_PRIVATE_0_Z6,OFFICE_PRIVATE_0_Z6_AIRLOOP
   #Components on Supply Air Path,1
   Supply Air Path Component,1,AIRLOOPHVAC:ZONESPLITTER,OFFICE_PRIVATE_0_Z6_SUPPLYSPLITTER,OFFICE_PRIVATE_0_Z6_AIRLOOP
     #Outlet Nodes on Supply Air Path Component,1
     Supply Air Path Component Nodes,1,AIRLOOPHVAC:ZONESPLITTER,OFFICE_PRIVATE_0_Z6_SUPPLYSPLITTER,OFFICE_PRIVATE_0_Z6_ZONEEQUIPMENTINLET,OFFICE_PRIVATE_0_Z6_TERMINALINLET,OFFICE_PRIVATE_0_Z6_AIRLOOP
! <#Nodes on Supply Air Path>,<Number of Nodes>
! <Supply Air Path Node>,<Node Type>,<Node Count>,<Node Name>,<AirLoopHVAC Name>
#Nodes on Supply Air Path,2
   Supply Air Path Node,Inlet Node,1,OFFICE_PRIVATE_0_Z6_ZONEEQUIPMENTINLET,OFFICE_PRIVATE_0_Z6_AIRLOOP
   Supply Air Path Node,Outlet Node,2,OFFICE_PRIVATE_0_Z6_TERMINALINLET,OFFICE_PRIVATE_0_Z6_AIRLOOP
 Supply Air Path,7,STORAGE_0_Z7,STORAGE_0_Z7_AIRLOOP
   #Components on Supply Air Path,1
   Supply Air Path Component,1,AIRLOOPHVAC:ZONESPLITTER,STORAGE_0_Z7_SUPPLYSPLITTER,STORAGE_0_Z7_AIRLOOP
     #Outlet Nodes on Supply Air Path Component,1
     Supply Air Path Component Nodes,1,AIRLOOPHVAC:ZONESPLITTER,STORAGE_0_Z7_SUPPLYSPLITTER,STORAGE_0_Z7_ZONEEQUIPMENTINLET,STORAGE_0_Z7_TERMINALINLET,STORAGE_0_Z7_AIRLOOP
! <#Nodes on Supply Air Path>,<Number of Nodes>
! <Supply Air Path Node>,<Node Type>,<Node Count>,<Node Name>,<AirLoopHVAC Name>
#Nodes on Supply Air Path,2
   Supply Air Path Node,Inlet Node,1,STORAGE_0_Z7_ZONEEQUIPMENTINLET,STORAGE_0_Z7_AIRLOOP
   Supply Air Path Node,Outlet Node,2,STORAGE_0_Z7_TERMINALINLET,STORAGE_0_Z7_AIRLOOP
 Supply Air Path,8,BREAK_ROOM_1_Z8,BREAK_ROOM_1_Z8_AIRLOOP
   #Components on Supply Air Path,1
   Supply Air Path Component,1,AIRLOOPHVAC:ZONESPLITTER,BREAK_ROOM_1_Z8_SUPPLYSPLITTER,BREAK_ROOM_1_Z8_AIRLOOP
     #Outlet Nodes on Supply Air Path Component,1
     Supply Air Path Component Nodes,1,AIRLOOPHVAC:ZONESPLITTER,BREAK_ROOM_1_Z8_SUPPLYSPLITTER,BREAK_ROOM_1_Z8_ZONEEQUIPMENTINLET,BREAK_ROOM_1_Z8_TERMINALINLET,BREAK_ROOM_1_Z8_AIRLOOP
! <#Nodes on Supply Air Path>,<Number of Nodes>
! <Supply Air Path Node>,<Node Type>,<Node Count>,<Node Name>,<AirLoopHVAC Name>
#Nodes on Supply Air Path,2
   Supply Air Path Node,Inlet Node,1,BREAK_ROOM_1_Z8_ZONEEQUIPMENTINLET,BREAK_ROOM_1_Z8_AIRLOOP
   Supply Air Path Node,Outlet Node,2,BREAK_ROOM_1_Z8_TERMINALINLET,BREAK_ROOM_1_Z8_AIRLOOP
 Supply Air Path,9,MECHANICAL_1_Z9,MECHANICAL_1_Z9_AIRLOOP
   #Components on Supply Air Path,1
   Supply Air Path Component,1,AIRLOOPHVAC:ZONESPLITTER,MECHANICAL_1_Z9_SUPPLYSPLITTER,MECHANICAL_1_Z9_AIRLOOP
     #Outlet Nodes on Supply Air Path Component,1
     Supply Air Path Component Nodes,1,AIRLOOPHVAC:ZONESPLITTER,MECHANICAL_1_Z9_SUPPLYSPLITTER,MECHANICAL_1_Z9_ZONEEQUIPMENTINLET,MECHANICAL_1_Z9_TERMINALINLET,MECHANICAL_1_Z9_AIRLOOP
! <#Nodes on Supply Air Path>,<Number of Nodes>
! <Supply Air Path Node>,<Node Type>,<Node Count>,<Node Name>,<AirLoopHVAC Name>
#Nodes on Supply Air Path,2
   Supply Air Path Node,Inlet Node,1,MECHANICAL_1_Z9_ZONEEQUIPMENTINLET,MECHANICAL_1_Z9_AIRLOOP
   Supply Air Path Node,Outlet Node,2,MECHANICAL_1_Z9_TERMINALINLET,MECHANICAL_1_Z9_AIRLOOP
 Supply Air Path,10,OFFICE_OPEN_1_Z10,OFFICE_OPEN_1_Z10_AIRLOOP
   #Components on Supply Air Path,1
   Supply Air Path Component,1,AIRLOOPHVAC:ZONESPLITTER,OFFICE_OPEN_1_Z10_SUPPLYSPLITTER,OFFICE_OPEN_1_Z10_AIRLOOP
     #Outlet Nodes on Supply Air Path Component,1
     Supply Air Path Component Nodes,1,AIRLOOPHVAC:ZONESPLITTER,OFFICE_OPEN_1_Z10_SUPPLYSPLITTER,OFFICE_OPEN_1_Z10_ZONEEQUIPMENTINLET,OFFICE_OPEN_1_Z10_TERMINALINLET,OFFICE_OPEN_1_Z10_AIRLOOP
! <#Nodes on Supply Air Path>,<Number of Nodes>
! <Supply Air Path Node>,<Node Type>,<Node Count>,<Node Name>,<AirLoopHVAC Name>
#Nodes on Supply Air Path,2
   Supply Air Path Node,Inlet Node,1,OFFICE_OPEN_1_Z10_ZONEEQUIPMENTINLET,OFFICE_OPEN_1_Z10_AIRLOOP
   Supply Air Path Node,Outlet Node,2,OFFICE_OPEN_1_Z10_TERMINALINLET,OFFICE_OPEN_1_Z10_AIRLOOP
 Supply Air Path,11,STORAGE_1_Z11,STORAGE_1_Z11_AIRLOOP
   #Components on Supply Air Path,1
   Supply Air Path Component,1,AIRLOOPHVAC:ZONESPLITTER,STORAGE_1_Z11_SUPPLYSPLITTER,STORAGE_1_Z11_AIRLOOP
     #Outlet Nodes on Supply Air Path Component,1
     Supply Air Path Component Nodes,1,AIRLOOPHVAC:ZONESPLITTER,STORAGE_1_Z11_SUPPLYSPLITTER,STORAGE_1_Z11_ZONEEQUIPMENTINLET,STORAGE_1_Z11_TERMINALINLET,STORAGE_1_Z11_AIRLOOP
! <#Nodes on Supply Air Path>,<Number of Nodes>
! <Supply Air Path Node>,<Node Type>,<Node Count>,<Node Name>,<AirLoopHVAC Name>
#Nodes on Supply Air Path,2
   Supply Air Path Node,Inlet Node,1,STORAGE_1_Z11_ZONEEQUIPMENTINLET,STORAGE_1_Z11_AIRLOOP
   Supply Air Path Node,Outlet Node,2,STORAGE_1_Z11_TERMINALINLET,STORAGE_1_Z11_AIRLOOP
 Supply Air Path,12,LOBBY_2_Z12,LOBBY_2_Z12_AIRLOOP
   #Components on Supply Air Path,1
   Supply Air Path Component,1,AIRLOOPHVAC:ZONESPLITTER,LOBBY_2_Z12_SUPPLYSPLITTER,LOBBY_2_Z12_AIRLOOP
     #Outlet Nodes on Supply Air Path Component,1
     Supply Air Path Component Nodes,1,AIRLOOPHVAC:ZONESPLITTER,LOBBY_2_Z12_SUPPLYSPLITTER,LOBBY_2_Z12_ZONEEQUIPMENTINLET,LOBBY_2_Z12_TERMINALINLET,LOBBY_2_Z12_AIRLOOP
! <#Nodes on Supply Air Path>,<Number of Nodes>
! <Supply Air Path Node>,<Node Type>,<Node Count>,<Node Name>,<AirLoopHVAC Name>
#Nodes on Supply Air Path,2
   Supply Air Path Node,Inlet Node,1,LOBBY_2_Z12_ZONEEQUIPMENTINLET,LOBBY_2_Z12_AIRLOOP
   Supply Air Path Node,Outlet Node,2,LOBBY_2_Z12_TERMINALINLET,LOBBY_2_Z12_AIRLOOP
 Supply Air Path,13,BREAK_ROOM_2_Z13,BREAK_ROOM_2_Z13_AIRLOOP
   #Components on Supply Air Path,1
   Supply Air Path Component,1,AIRLOOPHVAC:ZONESPLITTER,BREAK_ROOM_2_Z13_SUPPLYSPLITTER,BREAK_ROOM_2_Z13_AIRLOOP
     #Outlet Nodes on Supply Air Path Component,1
     Supply Air Path Component Nodes,1,AIRLOOPHVAC:ZONESPLITTER,BREAK_ROOM_2_Z13_SUPPLYSPLITTER,BREAK_ROOM_2_Z13_ZONEEQUIPMENTINLET,BREAK_ROOM_2_Z13_TERMINALINLET,BREAK_ROOM_2_Z13_AIRLOOP
! <#Nodes on Supply Air Path>,<Number of Nodes>
! <Supply Air Path Node>,<Node Type>,<Node Count>,<Node Name>,<AirLoopHVAC Name>
#Nodes on Supply Air Path,2
   Supply Air Path Node,Inlet Node,1,BREAK_ROOM_2_Z13_ZONEEQUIPMENTINLET,BREAK_ROOM_2_Z13_AIRLOOP
   Supply Air Path Node,Outlet Node,2,BREAK_ROOM_2_Z13_TERMINALINLET,BREAK_ROOM_2_Z13_AIRLOOP
 Supply Air Path,14,MECHANICAL_2_Z14,MECHANICAL_2_Z14_AIRLOOP
   #Components on Supply Air Path,1
   Supply Air Path Component,1,AIRLOOPHVAC:ZONESPLITTER,MECHANICAL_2_Z14_SUPPLYSPLITTER,MECHANICAL_2_Z14_AIRLOOP
     #Outlet Nodes on Supply Air Path Component,1
     Supply Air Path Component Nodes,1,AIRLOOPHVAC:ZONESPLITTER,MECHANICAL_2_Z14_SUPPLYSPLITTER,MECHANICAL_2_Z14_ZONEEQUIPMENTINLET,MECHANICAL_2_Z14_TERMINALINLET,MECHANICAL_2_Z14_AIRLOOP
! <#Nodes on Supply Air Path>,<Number of Nodes>
! <Supply Air Path Node>,<Node Type>,<Node Count>,<Node Name>,<AirLoopHVAC Name>
#Nodes on Supply Air Path,2
   Supply Air Path Node,Inlet Node,1,MECHANICAL_2_Z14_ZONEEQUIPMENTINLET,MECHANICAL_2_Z14_AIRLOOP
   Supply Air Path Node,Outlet Node,2,MECHANICAL_2_Z14_TERMINALINLET,MECHANICAL_2_Z14_AIRLOOP
 Supply Air Path,15,OFFICE_OPEN_2_Z15,OFFICE_OPEN_2_Z15_AIRLOOP
   #Components on Supply Air Path,1
   Supply Air Path Component,1,AIRLOOPHVAC:ZONESPLITTER,OFFICE_OPEN_2_Z15_SUPPLYSPLITTER,OFFICE_OPEN_2_Z15_AIRLOOP
     #Outlet Nodes on Supply Air Path Component,1
     Supply Air Path Component Nodes,1,AIRLOOPHVAC:ZONESPLITTER,OFFICE_OPEN_2_Z15_SUPPLYSPLITTER,OFFICE_OPEN_2_Z15_ZONEEQUIPMENTINLET,OFFICE_OPEN_2_Z15_TERMINALINLET,OFFICE_OPEN_2_Z15_AIRLOOP
! <#Nodes on Supply Air Path>,<Number of Nodes>
! <Supply Air Path Node>,<Node Type>,<Node Count>,<Node Name>,<AirLoopHVAC Name>
#Nodes on Supply Air Path,2
   Supply Air Path Node,Inlet Node,1,OFFICE_OPEN_2_Z15_ZONEEQUIPMENTINLET,OFFICE_OPEN_2_Z15_AIRLOOP
   Supply Air Path Node,Outlet Node,2,OFFICE_OPEN_2_Z15_TERMINALINLET,OFFICE_OPEN_2_Z15_AIRLOOP
 Supply Air Path,16,OFFICE_PRIVATE_2_Z16,OFFICE_PRIVATE_2_Z16_AIRLOOP
   #Components on Supply Air Path,1
   Supply Air Path Component,1,AIRLOOPHVAC:ZONESPLITTER,OFFICE_PRIVATE_2_Z16_SUPPLYSPLITTER,OFFICE_PRIVATE_2_Z16_AIRLOOP
     #Outlet Nodes on Supply Air Path Component,1
     Supply Air Path Component Nodes,1,AIRLOOPHVAC:ZONESPLITTER,OFFICE_PRIVATE_2_Z16_SUPPLYSPLITTER,OFFICE_PRIVATE_2_Z16_ZONEEQUIPMENTINLET,OFFICE_PRIVATE_2_Z16_TERMINALINLET,OFFICE_PRIVATE_2_Z16_AIRLOOP
! <#Nodes on Supply Air Path>,<Number of Nodes>
! <Supply Air Path Node>,<Node Type>,<Node Count>,<Node Name>,<AirLoopHVAC Name>
#Nodes on Supply Air Path,2
   Supply Air Path Node,Inlet Node,1,OFFICE_PRIVATE_2_Z16_ZONEEQUIPMENTINLET,OFFICE_PRIVATE_2_Z16_AIRLOOP
   Supply Air Path Node,Outlet Node,2,OFFICE_PRIVATE_2_Z16_TERMINALINLET,OFFICE_PRIVATE_2_Z16_AIRLOOP
 Supply Air Path,17,STORAGE_2_Z17,STORAGE_2_Z17_AIRLOOP
   #Components on Supply Air Path,1
   Supply Air Path Component,1,AIRLOOPHVAC:ZONESPLITTER,STORAGE_2_Z17_SUPPLYSPLITTER,STORAGE_2_Z17_AIRLOOP
     #Outlet Nodes on Supply Air Path Component,1
     Supply Air Path Component Nodes,1,AIRLOOPHVAC:ZONESPLITTER,STORAGE_2_Z17_SUPPLYSPLITTER,STORAGE_2_Z17_ZONEEQUIPMENTINLET,STORAGE_2_Z17_TERMINALINLET,STORAGE_2_Z17_AIRLOOP
! <#Nodes on Supply Air Path>,<Number of Nodes>
! <Supply Air Path Node>,<Node Type>,<Node Count>,<Node Name>,<AirLoopHVAC Name>
#Nodes on Supply Air Path,2
   Supply Air Path Node,Inlet Node,1,STORAGE_2_Z17_ZONEEQUIPMENTINLET,STORAGE_2_Z17_AIRLOOP
   Supply Air Path Node,Outlet Node,2,STORAGE_2_Z17_TERMINALINLET,STORAGE_2_Z17_AIRLOOP
 Supply Air Path,18,LOBBY_3_Z18,LOBBY_3_Z18_AIRLOOP
   #Components on Supply Air Path,1
   Supply Air Path Component,1,AIRLOOPHVAC:ZONESPLITTER,LOBBY_3_Z18_SUPPLYSPLITTER,LOBBY_3_Z18_AIRLOOP
     #Outlet Nodes on Supply Air Path Component,1
     Supply Air Path Component Nodes,1,AIRLOOPHVAC:ZONESPLITTER,LOBBY_3_Z18_SUPPLYSPLITTER,LOBBY_3_Z18_ZONEEQUIPMENTINLET,LOBBY_3_Z18_TERMINALINLET,LOBBY_3_Z18_AIRLOOP
! <#Nodes on Supply Air Path>,<Number of Nodes>
! <Supply Air Path Node>,<Node Type>,<Node Count>,<Node Name>,<AirLoopHVAC Name>
#Nodes on Supply Air Path,2
   Supply Air Path Node,Inlet Node,1,LOBBY_3_Z18_ZONEEQUIPMENTINLET,LOBBY_3_Z18_AIRLOOP
   Supply Air Path Node,Outlet Node,2,LOBBY_3_Z18_TERMINALINLET,LOBBY_3_Z18_AIRLOOP
 Supply Air Path,19,CONFERENCE_3_Z19,CONFERENCE_3_Z19_AIRLOOP
   #Components on Supply Air Path,1
   Supply Air Path Component,1,AIRLOOPHVAC:ZONESPLITTER,CONFERENCE_3_Z19_SUPPLYSPLITTER,CONFERENCE_3_Z19_AIRLOOP
     #Outlet Nodes on Supply Air Path Component,1
     Supply Air Path Component Nodes,1,AIRLOOPHVAC:ZONESPLITTER,CONFERENCE_3_Z19_SUPPLYSPLITTER,CONFERENCE_3_Z19_ZONEEQUIPMENTINLET,CONFERENCE_3_Z19_TERMINALINLET,CONFERENCE_3_Z19_AIRLOOP
! <#Nodes on Supply Air Path>,<Number of Nodes>
! <Supply Air Path Node>,<Node Type>,<Node Count>,<Node Name>,<AirLoopHVAC Name>
#Nodes on Supply Air Path,2
   Supply Air Path Node,Inlet Node,1,CONFERENCE_3_Z19_ZONEEQUIPMENTINLET,CONFERENCE_3_Z19_AIRLOOP
   Supply Air Path Node,Outlet Node,2,CONFERENCE_3_Z19_TERMINALINLET,CONFERENCE_3_Z19_AIRLOOP
 Supply Air Path,20,MECHANICAL_3_Z20,MECHANICAL_3_Z20_AIRLOOP
   #Components on Supply Air Path,1
   Supply Air Path Component,1,AIRLOOPHVAC:ZONESPLITTER,MECHANICAL_3_Z20_SUPPLYSPLITTER,MECHANICAL_3_Z20_AIRLOOP
     #Outlet Nodes on Supply Air Path Component,1
     Supply Air Path Component Nodes,1,AIRLOOPHVAC:ZONESPLITTER,MECHANICAL_3_Z20_SUPPLYSPLITTER,MECHANICAL_3_Z20_ZONEEQUIPMENTINLET,MECHANICAL_3_Z20_TERMINALINLET,MECHANICAL_3_Z20_AIRLOOP
! <#Nodes on Supply Air Path>,<Number of Nodes>
! <Supply Air Path Node>,<Node Type>,<Node Count>,<Node Name>,<AirLoopHVAC Name>
#Nodes on Supply Air Path,2
   Supply Air Path Node,Inlet Node,1,MECHANICAL_3_Z20_ZONEEQUIPMENTINLET,MECHANICAL_3_Z20_AIRLOOP
   Supply Air Path Node,Outlet Node,2,MECHANICAL_3_Z20_TERMINALINLET,MECHANICAL_3_Z20_AIRLOOP
 Supply Air Path,21,STORAGE_3_Z21,STORAGE_3_Z21_AIRLOOP
   #Components on Supply Air Path,1
   Supply Air Path Component,1,AIRLOOPHVAC:ZONESPLITTER,STORAGE_3_Z21_SUPPLYSPLITTER,STORAGE_3_Z21_AIRLOOP
     #Outlet Nodes on Supply Air Path Component,1
     Supply Air Path Component Nodes,1,AIRLOOPHVAC:ZONESPLITTER,STORAGE_3_Z21_SUPPLYSPLITTER,STORAGE_3_Z21_ZONEEQUIPMENTINLET,STORAGE_3_Z21_TERMINALINLET,STORAGE_3_Z21_AIRLOOP
! <#Nodes on Supply Air Path>,<Number of Nodes>
! <Supply Air Path Node>,<Node Type>,<Node Count>,<Node Name>,<AirLoopHVAC Name>
#Nodes on Supply Air Path,2
   Supply Air Path Node,Inlet Node,1,STORAGE_3_Z21_ZONEEQUIPMENTINLET,STORAGE_3_Z21_AIRLOOP
   Supply Air Path Node,Outlet Node,2,STORAGE_3_Z21_TERMINALINLET,STORAGE_3_Z21_AIRLOOP
 Supply Air Path,22,LOBBY_4_Z22,LOBBY_4_Z22_AIRLOOP
   #Components on Supply Air Path,1
   Supply Air Path Component,1,AIRLOOPHVAC:ZONESPLITTER,LOBBY_4_Z22_SUPPLYSPLITTER,LOBBY_4_Z22_AIRLOOP
     #Outlet Nodes on Supply Air Path Component,1
     Supply Air Path Component Nodes,1,AIRLOOPHVAC:ZONESPLITTER,LOBBY_4_Z22_SUPPLYSPLITTER,LOBBY_4_Z22_ZONEEQUIPMENTINLET,LOBBY_4_Z22_TERMINALINLET,LOBBY_4_Z22_AIRLOOP
! <#Nodes on Supply Air Path>,<Number of Nodes>
! <Supply Air Path Node>,<Node Type>,<Node Count>,<Node Name>,<AirLoopHVAC Name>
#Nodes on Supply Air Path,2
   Supply Air Path Node,Inlet Node,1,LOBBY_4_Z22_ZONEEQUIPMENTINLET,LOBBY_4_Z22_AIRLOOP
   Supply Air Path Node,Outlet Node,2,LOBBY_4_Z22_TERMINALINLET,LOBBY_4_Z22_AIRLOOP
 Supply Air Path,23,CONFERENCE_4_Z23,CONFERENCE_4_Z23_AIRLOOP
   #Components on Supply Air Path,1
   Supply Air Path Component,1,AIRLOOPHVAC:ZONESPLITTER,CONFERENCE_4_Z23_SUPPLYSPLITTER,CONFERENCE_4_Z23_AIRLOOP
     #Outlet Nodes on Supply Air Path Component,1
     Supply Air Path Component Nodes,1,AIRLOOPHVAC:ZONESPLITTER,CONFERENCE_4_Z23_SUPPLYSPLITTER,CONFERENCE_4_Z23_ZONEEQUIPMENTINLET,CONFERENCE_4_Z23_TERMINALINLET,CONFERENCE_4_Z23_AIRLOOP
! <#Nodes on Supply Air Path>,<Number of Nodes>
! <Supply Air Path Node>,<Node Type>,<Node Count>,<Node Name>,<AirLoopHVAC Name>
#Nodes on Supply Air Path,2
   Supply Air Path Node,Inlet Node,1,CONFERENCE_4_Z23_ZONEEQUIPMENTINLET,CONFERENCE_4_Z23_AIRLOOP
   Supply Air Path Node,Outlet Node,2,CONFERENCE_4_Z23_TERMINALINLET,CONFERENCE_4_Z23_AIRLOOP
 Supply Air Path,24,BREAK_ROOM_4_Z24,BREAK_ROOM_4_Z24_AIRLOOP
   #Components on Supply Air Path,1
   Supply Air Path Component,1,AIRLOOPHVAC:ZONESPLITTER,BREAK_ROOM_4_Z24_SUPPLYSPLITTER,BREAK_ROOM_4_Z24_AIRLOOP
     #Outlet Nodes on Supply Air Path Component,1
     Supply Air Path Component Nodes,1,AIRLOOPHVAC:ZONESPLITTER,BREAK_ROOM_4_Z24_SUPPLYSPLITTER,BREAK_ROOM_4_Z24_ZONEEQUIPMENTINLET,BREAK_ROOM_4_Z24_TERMINALINLET,BREAK_ROOM_4_Z24_AIRLOOP
! <#Nodes on Supply Air Path>,<Number of Nodes>
! <Supply Air Path Node>,<Node Type>,<Node Count>,<Node Name>,<AirLoopHVAC Name>
#Nodes on Supply Air Path,2
   Supply Air Path Node,Inlet Node,1,BREAK_ROOM_4_Z24_ZONEEQUIPMENTINLET,BREAK_ROOM_4_Z24_AIRLOOP
   Supply Air Path Node,Outlet Node,2,BREAK_ROOM_4_Z24_TERMINALINLET,BREAK_ROOM_4_Z24_AIRLOOP
 Supply Air Path,25,MECHANICAL_4_Z25,MECHANICAL_4_Z25_AIRLOOP
   #Components on Supply Air Path,1
   Supply Air Path Component,1,AIRLOOPHVAC:ZONESPLITTER,MECHANICAL_4_Z25_SUPPLYSPLITTER,MECHANICAL_4_Z25_AIRLOOP
     #Outlet Nodes on Supply Air Path Component,1
     Supply Air Path Component Nodes,1,AIRLOOPHVAC:ZONESPLITTER,MECHANICAL_4_Z25_SUPPLYSPLITTER,MECHANICAL_4_Z25_ZONEEQUIPMENTINLET,MECHANICAL_4_Z25_TERMINALINLET,MECHANICAL_4_Z25_AIRLOOP
! <#Nodes on Supply Air Path>,<Number of Nodes>
! <Supply Air Path Node>,<Node Type>,<Node Count>,<Node Name>,<AirLoopHVAC Name>
#Nodes on Supply Air Path,2
   Supply Air Path Node,Inlet Node,1,MECHANICAL_4_Z25_ZONEEQUIPMENTINLET,MECHANICAL_4_Z25_AIRLOOP
   Supply Air Path Node,Outlet Node,2,MECHANICAL_4_Z25_TERMINALINLET,MECHANICAL_4_Z25_AIRLOOP
 Supply Air Path,26,OFFICE_PRIVATE_4_Z26,OFFICE_PRIVATE_4_Z26_AIRLOOP
   #Components on Supply Air Path,1
   Supply Air Path Component,1,AIRLOOPHVAC:ZONESPLITTER,OFFICE_PRIVATE_4_Z26_SUPPLYSPLITTER,OFFICE_PRIVATE_4_Z26_AIRLOOP
     #Outlet Nodes on Supply Air Path Component,1
     Supply Air Path Component Nodes,1,AIRLOOPHVAC:ZONESPLITTER,OFFICE_PRIVATE_4_Z26_SUPPLYSPLITTER,OFFICE_PRIVATE_4_Z26_ZONEEQUIPMENTINLET,OFFICE_PRIVATE_4_Z26_TERMINALINLET,OFFICE_PRIVATE_4_Z26_AIRLOOP
! <#Nodes on Supply Air Path>,<Number of Nodes>
! <Supply Air Path Node>,<Node Type>,<Node Count>,<Node Name>,<AirLoopHVAC Name>
#Nodes on Supply Air Path,2
   Supply Air Path Node,Inlet Node,1,OFFICE_PRIVATE_4_Z26_ZONEEQUIPMENTINLET,OFFICE_PRIVATE_4_Z26_AIRLOOP
   Supply Air Path Node,Outlet Node,2,OFFICE_PRIVATE_4_Z26_TERMINALINLET,OFFICE_PRIVATE_4_Z26_AIRLOOP
 Supply Air Path,27,STORAGE_4_Z27,STORAGE_4_Z27_AIRLOOP
   #Components on Supply Air Path,1
   Supply Air Path Component,1,AIRLOOPHVAC:ZONESPLITTER,STORAGE_4_Z27_SUPPLYSPLITTER,STORAGE_4_Z27_AIRLOOP
     #Outlet Nodes on Supply Air Path Component,1
     Supply Air Path Component Nodes,1,AIRLOOPHVAC:ZONESPLITTER,STORAGE_4_Z27_SUPPLYSPLITTER,STORAGE_4_Z27_ZONEEQUIPMENTINLET,STORAGE_4_Z27_TERMINALINLET,STORAGE_4_Z27_AIRLOOP
! <#Nodes on Supply Air Path>,<Number of Nodes>
! <Supply Air Path Node>,<Node Type>,<Node Count>,<Node Name>,<AirLoopHVAC Name>
#Nodes on Supply Air Path,2
   Supply Air Path Node,Inlet Node,1,STORAGE_4_Z27_ZONEEQUIPMENTINLET,STORAGE_4_Z27_AIRLOOP
   Supply Air Path Node,Outlet Node,2,STORAGE_4_Z27_TERMINALINLET,STORAGE_4_Z27_AIRLOOP
! ===============================================================
! <#Return Air Paths>,<Number of Return Air Paths>
 #Return Air Paths,27
! <Return Air Path>,<Return Air Path Count>,<Return Air Path Name>,<AirLoopHVAC Name>
! <#Components on Return Air Path>,<Number of Components>
! <Return Air Path Component>,<Component Count>,<Component Type>,<Component Name>,<AirLoopHVAC Name>
! <#Inlet Nodes on Return Air Path Component>,<Number of Nodes>
! <Return Air Path Component Nodes>,<Node Count>,<Component Type>,<Component Name>,<Inlet Node Name>,<Outlet Node Name>,<AirLoopHVAC Name>
 Return Air Path,1,LOBBY_0_Z1_RETURNAIRPATH,LOBBY_0_Z1_AIRLOOP
   #Components on Return Air Path,1
   Return Air Path Component,1,AIRLOOPHVAC:ZONEMIXER,LOBBY_0_Z1_RETURNAIRMIXER,LOBBY_0_Z1_AIRLOOP
     #Inlet Nodes on Return Air Path Component,1
     Return Air Path Component Nodes,1,AIRLOOPHVAC:ZONEMIXER,LOBBY_0_Z1_RETURNAIRMIXER,LOBBY_0_Z1_RETURNAIR,LOBBY_0_Z1_ZONEEQUIPMENTOUTLETNODE,LOBBY_0_Z1_AIRLOOP
! <#Nodes on Return Air Path>,<Number of Nodes>
! <Return Air Path Node>,<Node Type>,<Node Count>,<Node Name>,<AirLoopHVAC Name>
   #Nodes on Return Air Path,2
   Return Air Path Node,Outlet Node,1,LOBBY_0_Z1_ZONEEQUIPMENTOUTLETNODE,LOBBY_0_Z1_AIRLOOP
   Return Air Path Node,Inlet Node,2,LOBBY_0_Z1_RETURNAIR,LOBBY_0_Z1_AIRLOOP
 Return Air Path,2,CONFERENCE_0_Z2_RETURNAIRPATH,CONFERENCE_0_Z2_AIRLOOP
   #Components on Return Air Path,1
   Return Air Path Component,1,AIRLOOPHVAC:ZONEMIXER,CONFERENCE_0_Z2_RETURNAIRMIXER,CONFERENCE_0_Z2_AIRLOOP
     #Inlet Nodes on Return Air Path Component,1
     Return Air Path Component Nodes,1,AIRLOOPHVAC:ZONEMIXER,CONFERENCE_0_Z2_RETURNAIRMIXER,CONFERENCE_0_Z2_RETURNAIR,CONFERENCE_0_Z2_ZONEEQUIPMENTOUTLETNODE,CONFERENCE_0_Z2_AIRLOOP
! <#Nodes on Return Air Path>,<Number of Nodes>
! <Return Air Path Node>,<Node Type>,<Node Count>,<Node Name>,<AirLoopHVAC Name>
   #Nodes on Return Air Path,2
   Return Air Path Node,Outlet Node,1,CONFERENCE_0_Z2_ZONEEQUIPMENTOUTLETNODE,CONFERENCE_0_Z2_AIRLOOP
   Return Air Path Node,Inlet Node,2,CONFERENCE_0_Z2_RETURNAIR,CONFERENCE_0_Z2_AIRLOOP
 Return Air Path,3,BREAK_ROOM_0_Z3_RETURNAIRPATH,BREAK_ROOM_0_Z3_AIRLOOP
   #Components on Return Air Path,1
   Return Air Path Component,1,AIRLOOPHVAC:ZONEMIXER,BREAK_ROOM_0_Z3_RETURNAIRMIXER,BREAK_ROOM_0_Z3_AIRLOOP
     #Inlet Nodes on Return Air Path Component,1
     Return Air Path Component Nodes,1,AIRLOOPHVAC:ZONEMIXER,BREAK_ROOM_0_Z3_RETURNAIRMIXER,BREAK_ROOM_0_Z3_RETURNAIR,BREAK_ROOM_0_Z3_ZONEEQUIPMENTOUTLETNODE,BREAK_ROOM_0_Z3_AIRLOOP
! <#Nodes on Return Air Path>,<Number of Nodes>
! <Return Air Path Node>,<Node Type>,<Node Count>,<Node Name>,<AirLoopHVAC Name>
   #Nodes on Return Air Path,2
   Return Air Path Node,Outlet Node,1,BREAK_ROOM_0_Z3_ZONEEQUIPMENTOUTLETNODE,BREAK_ROOM_0_Z3_AIRLOOP
   Return Air Path Node,Inlet Node,2,BREAK_ROOM_0_Z3_RETURNAIR,BREAK_ROOM_0_Z3_AIRLOOP
 Return Air Path,4,MECHANICAL_0_Z4_RETURNAIRPATH,MECHANICAL_0_Z4_AIRLOOP
   #Components on Return Air Path,1
   Return Air Path Component,1,AIRLOOPHVAC:ZONEMIXER,MECHANICAL_0_Z4_RETURNAIRMIXER,MECHANICAL_0_Z4_AIRLOOP
     #Inlet Nodes on Return Air Path Component,1
     Return Air Path Component Nodes,1,AIRLOOPHVAC:ZONEMIXER,MECHANICAL_0_Z4_RETURNAIRMIXER,MECHANICAL_0_Z4_RETURNAIR,MECHANICAL_0_Z4_ZONEEQUIPMENTOUTLETNODE,MECHANICAL_0_Z4_AIRLOOP
! <#Nodes on Return Air Path>,<Number of Nodes>
! <Return Air Path Node>,<Node Type>,<Node Count>,<Node Name>,<AirLoopHVAC Name>
   #Nodes on Return Air Path,2
   Return Air Path Node,Outlet Node,1,MECHANICAL_0_Z4_ZONEEQUIPMENTOUTLETNODE,MECHANICAL_0_Z4_AIRLOOP
   Return Air Path Node,Inlet Node,2,MECHANICAL_0_Z4_RETURNAIR,MECHANICAL_0_Z4_AIRLOOP
 Return Air Path,5,OFFICE_OPEN_0_Z5_RETURNAIRPATH,OFFICE_OPEN_0_Z5_AIRLOOP
   #Components on Return Air Path,1
   Return Air Path Component,1,AIRLOOPHVAC:ZONEMIXER,OFFICE_OPEN_0_Z5_RETURNAIRMIXER,OFFICE_OPEN_0_Z5_AIRLOOP
     #Inlet Nodes on Return Air Path Component,1
     Return Air Path Component Nodes,1,AIRLOOPHVAC:ZONEMIXER,OFFICE_OPEN_0_Z5_RETURNAIRMIXER,OFFICE_OPEN_0_Z5_RETURNAIR,OFFICE_OPEN_0_Z5_ZONEEQUIPMENTOUTLETNODE,OFFICE_OPEN_0_Z5_AIRLOOP
! <#Nodes on Return Air Path>,<Number of Nodes>
! <Return Air Path Node>,<Node Type>,<Node Count>,<Node Name>,<AirLoopHVAC Name>
   #Nodes on Return Air Path,2
   Return Air Path Node,Outlet Node,1,OFFICE_OPEN_0_Z5_ZONEEQUIPMENTOUTLETNODE,OFFICE_OPEN_0_Z5_AIRLOOP
   Return Air Path Node,Inlet Node,2,OFFICE_OPEN_0_Z5_RETURNAIR,OFFICE_OPEN_0_Z5_AIRLOOP
 Return Air Path,6,OFFICE_PRIVATE_0_Z6_RETURNAIRPATH,OFFICE_PRIVATE_0_Z6_AIRLOOP
   #Components on Return Air Path,1
   Return Air Path Component,1,AIRLOOPHVAC:ZONEMIXER,OFFICE_PRIVATE_0_Z6_RETURNAIRMIXER,OFFICE_PRIVATE_0_Z6_AIRLOOP
     #Inlet Nodes on Return Air Path Component,1
     Return Air Path Component Nodes,1,AIRLOOPHVAC:ZONEMIXER,OFFICE_PRIVATE_0_Z6_RETURNAIRMIXER,OFFICE_PRIVATE_0_Z6_RETURNAIR,OFFICE_PRIVATE_0_Z6_ZONEEQUIPMENTOUTLETNODE,OFFICE_PRIVATE_0_Z6_AIRLOOP
! <#Nodes on Return Air Path>,<Number of Nodes>
! <Return Air Path Node>,<Node Type>,<Node Count>,<Node Name>,<AirLoopHVAC Name>
   #Nodes on Return Air Path,2
   Return Air Path Node,Outlet Node,1,OFFICE_PRIVATE_0_Z6_ZONEEQUIPMENTOUTLETNODE,OFFICE_PRIVATE_0_Z6_AIRLOOP
   Return Air Path Node,Inlet Node,2,OFFICE_PRIVATE_0_Z6_RETURNAIR,OFFICE_PRIVATE_0_Z6_AIRLOOP
 Return Air Path,7,STORAGE_0_Z7_RETURNAIRPATH,STORAGE_0_Z7_AIRLOOP
   #Components on Return Air Path,1
   Return Air Path Component,1,AIRLOOPHVAC:ZONEMIXER,STORAGE_0_Z7_RETURNAIRMIXER,STORAGE_0_Z7_AIRLOOP
     #Inlet Nodes on Return Air Path Component,1
     Return Air Path Component Nodes,1,AIRLOOPHVAC:ZONEMIXER,STORAGE_0_Z7_RETURNAIRMIXER,STORAGE_0_Z7_RETURNAIR,STORAGE_0_Z7_ZONEEQUIPMENTOUTLETNODE,STORAGE_0_Z7_AIRLOOP
! <#Nodes on Return Air Path>,<Number of Nodes>
! <Return Air Path Node>,<Node Type>,<Node Count>,<Node Name>,<AirLoopHVAC Name>
   #Nodes on Return Air Path,2
   Return Air Path Node,Outlet Node,1,STORAGE_0_Z7_ZONEEQUIPMENTOUTLETNODE,STORAGE_0_Z7_AIRLOOP
   Return Air Path Node,Inlet Node,2,STORAGE_0_Z7_RETURNAIR,STORAGE_0_Z7_AIRLOOP
 Return Air Path,8,BREAK_ROOM_1_Z8_RETURNAIRPATH,BREAK_ROOM_1_Z8_AIRLOOP
   #Components on Return Air Path,1
   Return Air Path Component,1,AIRLOOPHVAC:ZONEMIXER,BREAK_ROOM_1_Z8_RETURNAIRMIXER,BREAK_ROOM_1_Z8_AIRLOOP
     #Inlet Nodes on Return Air Path Component,1
     Return Air Path Component Nodes,1,AIRLOOPHVAC:ZONEMIXER,BREAK_ROOM_1_Z8_RETURNAIRMIXER,BREAK_ROOM_1_Z8_RETURNAIR,BREAK_ROOM_1_Z8_ZONEEQUIPMENTOUTLETNODE,BREAK_ROOM_1_Z8_AIRLOOP
! <#Nodes on Return Air Path>,<Number of Nodes>
! <Return Air Path Node>,<Node Type>,<Node Count>,<Node Name>,<AirLoopHVAC Name>
   #Nodes on Return Air Path,2
   Return Air Path Node,Outlet Node,1,BREAK_ROOM_1_Z8_ZONEEQUIPMENTOUTLETNODE,BREAK_ROOM_1_Z8_AIRLOOP
   Return Air Path Node,Inlet Node,2,BREAK_ROOM_1_Z8_RETURNAIR,BREAK_ROOM_1_Z8_AIRLOOP
 Return Air Path,9,MECHANICAL_1_Z9_RETURNAIRPATH,MECHANICAL_1_Z9_AIRLOOP
   #Components on Return Air Path,1
   Return Air Path Component,1,AIRLOOPHVAC:ZONEMIXER,MECHANICAL_1_Z9_RETURNAIRMIXER,MECHANICAL_1_Z9_AIRLOOP
     #Inlet Nodes on Return Air Path Component,1
     Return Air Path Component Nodes,1,AIRLOOPHVAC:ZONEMIXER,MECHANICAL_1_Z9_RETURNAIRMIXER,MECHANICAL_1_Z9_RETURNAIR,MECHANICAL_1_Z9_ZONEEQUIPMENTOUTLETNODE,MECHANICAL_1_Z9_AIRLOOP
! <#Nodes on Return Air Path>,<Number of Nodes>
! <Return Air Path Node>,<Node Type>,<Node Count>,<Node Name>,<AirLoopHVAC Name>
   #Nodes on Return Air Path,2
   Return Air Path Node,Outlet Node,1,MECHANICAL_1_Z9_ZONEEQUIPMENTOUTLETNODE,MECHANICAL_1_Z9_AIRLOOP
   Return Air Path Node,Inlet Node,2,MECHANICAL_1_Z9_RETURNAIR,MECHANICAL_1_Z9_AIRLOOP
 Return Air Path,10,OFFICE_OPEN_1_Z10_RETURNAIRPATH,OFFICE_OPEN_1_Z10_AIRLOOP
   #Components on Return Air Path,1
   Return Air Path Component,1,AIRLOOPHVAC:ZONEMIXER,OFFICE_OPEN_1_Z10_RETURNAIRMIXER,OFFICE_OPEN_1_Z10_AIRLOOP
     #Inlet Nodes on Return Air Path Component,1
     Return Air Path Component Nodes,1,AIRLOOPHVAC:ZONEMIXER,OFFICE_OPEN_1_Z10_RETURNAIRMIXER,OFFICE_OPEN_1_Z10_RETURNAIR,OFFICE_OPEN_1_Z10_ZONEEQUIPMENTOUTLETNODE,OFFICE_OPEN_1_Z10_AIRLOOP
! <#Nodes on Return Air Path>,<Number of Nodes>
! <Return Air Path Node>,<Node Type>,<Node Count>,<Node Name>,<AirLoopHVAC Name>
   #Nodes on Return Air Path,2
   Return Air Path Node,Outlet Node,1,OFFICE_OPEN_1_Z10_ZONEEQUIPMENTOUTLETNODE,OFFICE_OPEN_1_Z10_AIRLOOP
   Return Air Path Node,Inlet Node,2,OFFICE_OPEN_1_Z10_RETURNAIR,OFFICE_OPEN_1_Z10_AIRLOOP
 Return Air Path,11,STORAGE_1_Z11_RETURNAIRPATH,STORAGE_1_Z11_AIRLOOP
   #Components on Return Air Path,1
   Return Air Path Component,1,AIRLOOPHVAC:ZONEMIXER,STORAGE_1_Z11_RETURNAIRMIXER,STORAGE_1_Z11_AIRLOOP
     #Inlet Nodes on Return Air Path Component,1
     Return Air Path Component Nodes,1,AIRLOOPHVAC:ZONEMIXER,STORAGE_1_Z11_RETURNAIRMIXER,STORAGE_1_Z11_RETURNAIR,STORAGE_1_Z11_ZONEEQUIPMENTOUTLETNODE,STORAGE_1_Z11_AIRLOOP
! <#Nodes on Return Air Path>,<Number of Nodes>
! <Return Air Path Node>,<Node Type>,<Node Count>,<Node Name>,<AirLoopHVAC Name>
   #Nodes on Return Air Path,2
   Return Air Path Node,Outlet Node,1,STORAGE_1_Z11_ZONEEQUIPMENTOUTLETNODE,STORAGE_1_Z11_AIRLOOP
   Return Air Path Node,Inlet Node,2,STORAGE_1_Z11_RETURNAIR,STORAGE_1_Z11_AIRLOOP
 Return Air Path,12,LOBBY_2_Z12_RETURNAIRPATH,LOBBY_2_Z12_AIRLOOP
   #Components on Return Air Path,1
   Return Air Path Component,1,AIRLOOPHVAC:ZONEMIXER,LOBBY_2_Z12_RETURNAIRMIXER,LOBBY_2_Z12_AIRLOOP
     #Inlet Nodes on Return Air Path Component,1
     Return Air Path Component Nodes,1,AIRLOOPHVAC:ZONEMIXER,LOBBY_2_Z12_RETURNAIRMIXER,LOBBY_2_Z12_RETURNAIR,LOBBY_2_Z12_ZONEEQUIPMENTOUTLETNODE,LOBBY_2_Z12_AIRLOOP
! <#Nodes on Return Air Path>,<Number of Nodes>
! <Return Air Path Node>,<Node Type>,<Node Count>,<Node Name>,<AirLoopHVAC Name>
   #Nodes on Return Air Path,2
   Return Air Path Node,Outlet Node,1,LOBBY_2_Z12_ZONEEQUIPMENTOUTLETNODE,LOBBY_2_Z12_AIRLOOP
   Return Air Path Node,Inlet Node,2,LOBBY_2_Z12_RETURNAIR,LOBBY_2_Z12_AIRLOOP
 Return Air Path,13,BREAK_ROOM_2_Z13_RETURNAIRPATH,BREAK_ROOM_2_Z13_AIRLOOP
   #Components on Return Air Path,1
   Return Air Path Component,1,AIRLOOPHVAC:ZONEMIXER,BREAK_ROOM_2_Z13_RETURNAIRMIXER,BREAK_ROOM_2_Z13_AIRLOOP
     #Inlet Nodes on Return Air Path Component,1
     Return Air Path Component Nodes,1,AIRLOOPHVAC:ZONEMIXER,BREAK_ROOM_2_Z13_RETURNAIRMIXER,BREAK_ROOM_2_Z13_RETURNAIR,BREAK_ROOM_2_Z13_ZONEEQUIPMENTOUTLETNODE,BREAK_ROOM_2_Z13_AIRLOOP
! <#Nodes on Return Air Path>,<Number of Nodes>
! <Return Air Path Node>,<Node Type>,<Node Count>,<Node Name>,<AirLoopHVAC Name>
   #Nodes on Return Air Path,2
   Return Air Path Node,Outlet Node,1,BREAK_ROOM_2_Z13_ZONEEQUIPMENTOUTLETNODE,BREAK_ROOM_2_Z13_AIRLOOP
   Return Air Path Node,Inlet Node,2,BREAK_ROOM_2_Z13_RETURNAIR,BREAK_ROOM_2_Z13_AIRLOOP
 Return Air Path,14,MECHANICAL_2_Z14_RETURNAIRPATH,MECHANICAL_2_Z14_AIRLOOP
   #Components on Return Air Path,1
   Return Air Path Component,1,AIRLOOPHVAC:ZONEMIXER,MECHANICAL_2_Z14_RETURNAIRMIXER,MECHANICAL_2_Z14_AIRLOOP
     #Inlet Nodes on Return Air Path Component,1
     Return Air Path Component Nodes,1,AIRLOOPHVAC:ZONEMIXER,MECHANICAL_2_Z14_RETURNAIRMIXER,MECHANICAL_2_Z14_RETURNAIR,MECHANICAL_2_Z14_ZONEEQUIPMENTOUTLETNODE,MECHANICAL_2_Z14_AIRLOOP
! <#Nodes on Return Air Path>,<Number of Nodes>
! <Return Air Path Node>,<Node Type>,<Node Count>,<Node Name>,<AirLoopHVAC Name>
   #Nodes on Return Air Path,2
   Return Air Path Node,Outlet Node,1,MECHANICAL_2_Z14_ZONEEQUIPMENTOUTLETNODE,MECHANICAL_2_Z14_AIRLOOP
   Return Air Path Node,Inlet Node,2,MECHANICAL_2_Z14_RETURNAIR,MECHANICAL_2_Z14_AIRLOOP
 Return Air Path,15,OFFICE_OPEN_2_Z15_RETURNAIRPATH,OFFICE_OPEN_2_Z15_AIRLOOP
   #Components on Return Air Path,1
   Return Air Path Component,1,AIRLOOPHVAC:ZONEMIXER,OFFICE_OPEN_2_Z15_RETURNAIRMIXER,OFFICE_OPEN_2_Z15_AIRLOOP
     #Inlet Nodes on Return Air Path Component,1
     Return Air Path Component Nodes,1,AIRLOOPHVAC:ZONEMIXER,OFFICE_OPEN_2_Z15_RETURNAIRMIXER,OFFICE_OPEN_2_Z15_RETURNAIR,OFFICE_OPEN_2_Z15_ZONEEQUIPMENTOUTLETNODE,OFFICE_OPEN_2_Z15_AIRLOOP
! <#Nodes on Return Air Path>,<Number of Nodes>
! <Return Air Path Node>,<Node Type>,<Node Count>,<Node Name>,<AirLoopHVAC Name>
   #Nodes on Return Air Path,2
   Return Air Path Node,Outlet Node,1,OFFICE_OPEN_2_Z15_ZONEEQUIPMENTOUTLETNODE,OFFICE_OPEN_2_Z15_AIRLOOP
   Return Air Path Node,Inlet Node,2,OFFICE_OPEN_2_Z15_RETURNAIR,OFFICE_OPEN_2_Z15_AIRLOOP
 Return Air Path,16,OFFICE_PRIVATE_2_Z16_RETURNAIRPATH,OFFICE_PRIVATE_2_Z16_AIRLOOP
   #Components on Return Air Path,1
   Return Air Path Component,1,AIRLOOPHVAC:ZONEMIXER,OFFICE_PRIVATE_2_Z16_RETURNAIRMIXER,OFFICE_PRIVATE_2_Z16_AIRLOOP
     #Inlet Nodes on Return Air Path Component,1
     Return Air Path Component Nodes,1,AIRLOOPHVAC:ZONEMIXER,OFFICE_PRIVATE_2_Z16_RETURNAIRMIXER,OFFICE_PRIVATE_2_Z16_RETURNAIR,OFFICE_PRIVATE_2_Z16_ZONEEQUIPMENTOUTLETNODE,OFFICE_PRIVATE_2_Z16_AIRLOOP
! <#Nodes on Return Air Path>,<Number of Nodes>
! <Return Air Path Node>,<Node Type>,<Node Count>,<Node Name>,<AirLoopHVAC Name>
   #Nodes on Return Air Path,2
   Return Air Path Node,Outlet Node,1,OFFICE_PRIVATE_2_Z16_ZONEEQUIPMENTOUTLETNODE,OFFICE_PRIVATE_2_Z16_AIRLOOP
   Return Air Path Node,Inlet Node,2,OFFICE_PRIVATE_2_Z16_RETURNAIR,OFFICE_PRIVATE_2_Z16_AIRLOOP
 Return Air Path,17,STORAGE_2_Z17_RETURNAIRPATH,STORAGE_2_Z17_AIRLOOP
   #Components on Return Air Path,1
   Return Air Path Component,1,AIRLOOPHVAC:ZONEMIXER,STORAGE_2_Z17_RETURNAIRMIXER,STORAGE_2_Z17_AIRLOOP
     #Inlet Nodes on Return Air Path Component,1
     Return Air Path Component Nodes,1,AIRLOOPHVAC:ZONEMIXER,STORAGE_2_Z17_RETURNAIRMIXER,STORAGE_2_Z17_RETURNAIR,STORAGE_2_Z17_ZONEEQUIPMENTOUTLETNODE,STORAGE_2_Z17_AIRLOOP
! <#Nodes on Return Air Path>,<Number of Nodes>
! <Return Air Path Node>,<Node Type>,<Node Count>,<Node Name>,<AirLoopHVAC Name>
   #Nodes on Return Air Path,2
   Return Air Path Node,Outlet Node,1,STORAGE_2_Z17_ZONEEQUIPMENTOUTLETNODE,STORAGE_2_Z17_AIRLOOP
   Return Air Path Node,Inlet Node,2,STORAGE_2_Z17_RETURNAIR,STORAGE_2_Z17_AIRLOOP
 Return Air Path,18,LOBBY_3_Z18_RETURNAIRPATH,LOBBY_3_Z18_AIRLOOP
   #Components on Return Air Path,1
   Return Air Path Component,1,AIRLOOPHVAC:ZONEMIXER,LOBBY_3_Z18_RETURNAIRMIXER,LOBBY_3_Z18_AIRLOOP
     #Inlet Nodes on Return Air Path Component,1
     Return Air Path Component Nodes,1,AIRLOOPHVAC:ZONEMIXER,LOBBY_3_Z18_RETURNAIRMIXER,LOBBY_3_Z18_RETURNAIR,LOBBY_3_Z18_ZONEEQUIPMENTOUTLETNODE,LOBBY_3_Z18_AIRLOOP
! <#Nodes on Return Air Path>,<Number of Nodes>
! <Return Air Path Node>,<Node Type>,<Node Count>,<Node Name>,<AirLoopHVAC Name>
   #Nodes on Return Air Path,2
   Return Air Path Node,Outlet Node,1,LOBBY_3_Z18_ZONEEQUIPMENTOUTLETNODE,LOBBY_3_Z18_AIRLOOP
   Return Air Path Node,Inlet Node,2,LOBBY_3_Z18_RETURNAIR,LOBBY_3_Z18_AIRLOOP
 Return Air Path,19,CONFERENCE_3_Z19_RETURNAIRPATH,CONFERENCE_3_Z19_AIRLOOP
   #Components on Return Air Path,1
   Return Air Path Component,1,AIRLOOPHVAC:ZONEMIXER,CONFERENCE_3_Z19_RETURNAIRMIXER,CONFERENCE_3_Z19_AIRLOOP
     #Inlet Nodes on Return Air Path Component,1
     Return Air Path Component Nodes,1,AIRLOOPHVAC:ZONEMIXER,CONFERENCE_3_Z19_RETURNAIRMIXER,CONFERENCE_3_Z19_RETURNAIR,CONFERENCE_3_Z19_ZONEEQUIPMENTOUTLETNODE,CONFERENCE_3_Z19_AIRLOOP
! <#Nodes on Return Air Path>,<Number of Nodes>
! <Return Air Path Node>,<Node Type>,<Node Count>,<Node Name>,<AirLoopHVAC Name>
   #Nodes on Return Air Path,2
   Return Air Path Node,Outlet Node,1,CONFERENCE_3_Z19_ZONEEQUIPMENTOUTLETNODE,CONFERENCE_3_Z19_AIRLOOP
   Return Air Path Node,Inlet Node,2,CONFERENCE_3_Z19_RETURNAIR,CONFERENCE_3_Z19_AIRLOOP
 Return Air Path,20,MECHANICAL_3_Z20_RETURNAIRPATH,MECHANICAL_3_Z20_AIRLOOP
   #Components on Return Air Path,1
   Return Air Path Component,1,AIRLOOPHVAC:ZONEMIXER,MECHANICAL_3_Z20_RETURNAIRMIXER,MECHANICAL_3_Z20_AIRLOOP
     #Inlet Nodes on Return Air Path Component,1
     Return Air Path Component Nodes,1,AIRLOOPHVAC:ZONEMIXER,MECHANICAL_3_Z20_RETURNAIRMIXER,MECHANICAL_3_Z20_RETURNAIR,MECHANICAL_3_Z20_ZONEEQUIPMENTOUTLETNODE,MECHANICAL_3_Z20_AIRLOOP
! <#Nodes on Return Air Path>,<Number of Nodes>
! <Return Air Path Node>,<Node Type>,<Node Count>,<Node Name>,<AirLoopHVAC Name>
   #Nodes on Return Air Path,2
   Return Air Path Node,Outlet Node,1,MECHANICAL_3_Z20_ZONEEQUIPMENTOUTLETNODE,MECHANICAL_3_Z20_AIRLOOP
   Return Air Path Node,Inlet Node,2,MECHANICAL_3_Z20_RETURNAIR,MECHANICAL_3_Z20_AIRLOOP
 Return Air Path,21,STORAGE_3_Z21_RETURNAIRPATH,STORAGE_3_Z21_AIRLOOP
   #Components on Return Air Path,1
   Return Air Path Component,1,AIRLOOPHVAC:ZONEMIXER,STORAGE_3_Z21_RETURNAIRMIXER,STORAGE_3_Z21_AIRLOOP
     #Inlet Nodes on Return Air Path Component,1
     Return Air Path Component Nodes,1,AIRLOOPHVAC:ZONEMIXER,STORAGE_3_Z21_RETURNAIRMIXER,STORAGE_3_Z21_RETURNAIR,STORAGE_3_Z21_ZONEEQUIPMENTOUTLETNODE,STORAGE_3_Z21_AIRLOOP
! <#Nodes on Return Air Path>,<Number of Nodes>
! <Return Air Path Node>,<Node Type>,<Node Count>,<Node Name>,<AirLoopHVAC Name>
   #Nodes on Return Air Path,2
   Return Air Path Node,Outlet Node,1,STORAGE_3_Z21_ZONEEQUIPMENTOUTLETNODE,STORAGE_3_Z21_AIRLOOP
   Return Air Path Node,Inlet Node,2,STORAGE_3_Z21_RETURNAIR,STORAGE_3_Z21_AIRLOOP
 Return Air Path,22,LOBBY_4_Z22_RETURNAIRPATH,LOBBY_4_Z22_AIRLOOP
   #Components on Return Air Path,1
   Return Air Path Component,1,AIRLOOPHVAC:ZONEMIXER,LOBBY_4_Z22_RETURNAIRMIXER,LOBBY_4_Z22_AIRLOOP
     #Inlet Nodes on Return Air Path Component,1
     Return Air Path Component Nodes,1,AIRLOOPHVAC:ZONEMIXER,LOBBY_4_Z22_RETURNAIRMIXER,LOBBY_4_Z22_RETURNAIR,LOBBY_4_Z22_ZONEEQUIPMENTOUTLETNODE,LOBBY_4_Z22_AIRLOOP
! <#Nodes on Return Air Path>,<Number of Nodes>
! <Return Air Path Node>,<Node Type>,<Node Count>,<Node Name>,<AirLoopHVAC Name>
   #Nodes on Return Air Path,2
   Return Air Path Node,Outlet Node,1,LOBBY_4_Z22_ZONEEQUIPMENTOUTLETNODE,LOBBY_4_Z22_AIRLOOP
   Return Air Path Node,Inlet Node,2,LOBBY_4_Z22_RETURNAIR,LOBBY_4_Z22_AIRLOOP
 Return Air Path,23,CONFERENCE_4_Z23_RETURNAIRPATH,CONFERENCE_4_Z23_AIRLOOP
   #Components on Return Air Path,1
   Return Air Path Component,1,AIRLOOPHVAC:ZONEMIXER,CONFERENCE_4_Z23_RETURNAIRMIXER,CONFERENCE_4_Z23_AIRLOOP
     #Inlet Nodes on Return Air Path Component,1
     Return Air Path Component Nodes,1,AIRLOOPHVAC:ZONEMIXER,CONFERENCE_4_Z23_RETURNAIRMIXER,CONFERENCE_4_Z23_RETURNAIR,CONFERENCE_4_Z23_ZONEEQUIPMENTOUTLETNODE,CONFERENCE_4_Z23_AIRLOOP
! <#Nodes on Return Air Path>,<Number of Nodes>
! <Return Air Path Node>,<Node Type>,<Node Count>,<Node Name>,<AirLoopHVAC Name>
   #Nodes on Return Air Path,2
   Return Air Path Node,Outlet Node,1,CONFERENCE_4_Z23_ZONEEQUIPMENTOUTLETNODE,CONFERENCE_4_Z23_AIRLOOP
   Return Air Path Node,Inlet Node,2,CONFERENCE_4_Z23_RETURNAIR,CONFERENCE_4_Z23_AIRLOOP
 Return Air Path,24,BREAK_ROOM_4_Z24_RETURNAIRPATH,BREAK_ROOM_4_Z24_AIRLOOP
   #Components on Return Air Path,1
   Return Air Path Component,1,AIRLOOPHVAC:ZONEMIXER,BREAK_ROOM_4_Z24_RETURNAIRMIXER,BREAK_ROOM_4_Z24_AIRLOOP
     #Inlet Nodes on Return Air Path Component,1
     Return Air Path Component Nodes,1,AIRLOOPHVAC:ZONEMIXER,BREAK_ROOM_4_Z24_RETURNAIRMIXER,BREAK_ROOM_4_Z24_RETURNAIR,BREAK_ROOM_4_Z24_ZONEEQUIPMENTOUTLETNODE,BREAK_ROOM_4_Z24_AIRLOOP
! <#Nodes on Return Air Path>,<Number of Nodes>
! <Return Air Path Node>,<Node Type>,<Node Count>,<Node Name>,<AirLoopHVAC Name>
   #Nodes on Return Air Path,2
   Return Air Path Node,Outlet Node,1,BREAK_ROOM_4_Z24_ZONEEQUIPMENTOUTLETNODE,BREAK_ROOM_4_Z24_AIRLOOP
   Return Air Path Node,Inlet Node,2,BREAK_ROOM_4_Z24_RETURNAIR,BREAK_ROOM_4_Z24_AIRLOOP
 Return Air Path,25,MECHANICAL_4_Z25_RETURNAIRPATH,MECHANICAL_4_Z25_AIRLOOP
   #Components on Return Air Path,1
   Return Air Path Component,1,AIRLOOPHVAC:ZONEMIXER,MECHANICAL_4_Z25_RETURNAIRMIXER,MECHANICAL_4_Z25_AIRLOOP
     #Inlet Nodes on Return Air Path Component,1
     Return Air Path Component Nodes,1,AIRLOOPHVAC:ZONEMIXER,MECHANICAL_4_Z25_RETURNAIRMIXER,MECHANICAL_4_Z25_RETURNAIR,MECHANICAL_4_Z25_ZONEEQUIPMENTOUTLETNODE,MECHANICAL_4_Z25_AIRLOOP
! <#Nodes on Return Air Path>,<Number of Nodes>
! <Return Air Path Node>,<Node Type>,<Node Count>,<Node Name>,<AirLoopHVAC Name>
   #Nodes on Return Air Path,2
   Return Air Path Node,Outlet Node,1,MECHANICAL_4_Z25_ZONEEQUIPMENTOUTLETNODE,MECHANICAL_4_Z25_AIRLOOP
   Return Air Path Node,Inlet Node,2,MECHANICAL_4_Z25_RETURNAIR,MECHANICAL_4_Z25_AIRLOOP
 Return Air Path,26,OFFICE_PRIVATE_4_Z26_RETURNAIRPATH,OFFICE_PRIVATE_4_Z26_AIRLOOP
   #Components on Return Air Path,1
   Return Air Path Component,1,AIRLOOPHVAC:ZONEMIXER,OFFICE_PRIVATE_4_Z26_RETURNAIRMIXER,OFFICE_PRIVATE_4_Z26_AIRLOOP
     #Inlet Nodes on Return Air Path Component,1
     Return Air Path Component Nodes,1,AIRLOOPHVAC:ZONEMIXER,OFFICE_PRIVATE_4_Z26_RETURNAIRMIXER,OFFICE_PRIVATE_4_Z26_RETURNAIR,OFFICE_PRIVATE_4_Z26_ZONEEQUIPMENTOUTLETNODE,OFFICE_PRIVATE_4_Z26_AIRLOOP
! <#Nodes on Return Air Path>,<Number of Nodes>
! <Return Air Path Node>,<Node Type>,<Node Count>,<Node Name>,<AirLoopHVAC Name>
   #Nodes on Return Air Path,2
   Return Air Path Node,Outlet Node,1,OFFICE_PRIVATE_4_Z26_ZONEEQUIPMENTOUTLETNODE,OFFICE_PRIVATE_4_Z26_AIRLOOP
   Return Air Path Node,Inlet Node,2,OFFICE_PRIVATE_4_Z26_RETURNAIR,OFFICE_PRIVATE_4_Z26_AIRLOOP
 Return Air Path,27,STORAGE_4_Z27_RETURNAIRPATH,STORAGE_4_Z27_AIRLOOP
   #Components on Return Air Path,1
   Return Air Path Component,1,AIRLOOPHVAC:ZONEMIXER,STORAGE_4_Z27_RETURNAIRMIXER,STORAGE_4_Z27_AIRLOOP
     #Inlet Nodes on Return Air Path Component,1
     Return Air Path Component Nodes,1,AIRLOOPHVAC:ZONEMIXER,STORAGE_4_Z27_RETURNAIRMIXER,STORAGE_4_Z27_RETURNAIR,STORAGE_4_Z27_ZONEEQUIPMENTOUTLETNODE,STORAGE_4_Z27_AIRLOOP
! <#Nodes on Return Air Path>,<Number of Nodes>
! <Return Air Path Node>,<Node Type>,<Node Count>,<Node Name>,<AirLoopHVAC Name>
   #Nodes on Return Air Path,2
   Return Air Path Node,Outlet Node,1,STORAGE_4_Z27_ZONEEQUIPMENTOUTLETNODE,STORAGE_4_Z27_AIRLOOP
   Return Air Path Node,Inlet Node,2,STORAGE_4_Z27_RETURNAIR,STORAGE_4_Z27_AIRLOOP
! ===============================================================
! #Outdoor Air Nodes,<Number of Outdoor Air Nodes>
 #Outdoor Air Nodes,0
! ===============================================================
! <#Component Sets>,<Number of Component Sets>
 #Component Sets,162
! <Component Set>,<Component Set Count>,<Parent Object Type>,<Parent Object Name>,<Component Type>,<Component Name>,<Inlet Node ID>,<Outlet Node ID>,<Description>
 Component Set,1,BRANCH,LOBBY_0_Z1_MAINBRANCH,COILSYSTEM:COOLING:DX,LOBBY_0_Z1_COOLINGCOIL,LOBBY_0_Z1_SUPPLYINLET,LOBBY_0_Z1_COOLC-HEATCNODE,Air Nodes
 Component Set,2,BRANCH,LOBBY_0_Z1_MAINBRANCH,COIL:HEATING:ELECTRIC,LOBBY_0_Z1_HEATINGCOIL,LOBBY_0_Z1_COOLC-HEATCNODE,LOBBY_0_Z1_HEATC-FANNODE,Air Nodes
 Component Set,3,BRANCH,LOBBY_0_Z1_MAINBRANCH,FAN:VARIABLEVOLUME,LOBBY_0_Z1_SUPPLYFAN,LOBBY_0_Z1_HEATC-FANNODE,LOBBY_0_Z1_SUPPLYEQUIPMENTOUTLETNODE,Air Nodes
 Component Set,4,BRANCH,CONFERENCE_0_Z2_MAINBRANCH,COILSYSTEM:COOLING:DX,CONFERENCE_0_Z2_COOLINGCOIL,CONFERENCE_0_Z2_SUPPLYINLET,CONFERENCE_0_Z2_COOLC-HEATCNODE,Air Nodes
 Component Set,5,BRANCH,CONFERENCE_0_Z2_MAINBRANCH,COIL:HEATING:ELECTRIC,CONFERENCE_0_Z2_HEATINGCOIL,CONFERENCE_0_Z2_COOLC-HEATCNODE,CONFERENCE_0_Z2_HEATC-FANNODE,Air Nodes
 Component Set,6,BRANCH,CONFERENCE_0_Z2_MAINBRANCH,FAN:VARIABLEVOLUME,CONFERENCE_0_Z2_SUPPLYFAN,CONFERENCE_0_Z2_HEATC-FANNODE,CONFERENCE_0_Z2_SUPPLYEQUIPMENTOUTLETNODE,Air Nodes
 Component Set,7,BRANCH,BREAK_ROOM_0_Z3_MAINBRANCH,COILSYSTEM:COOLING:DX,BREAK_ROOM_0_Z3_COOLINGCOIL,BREAK_ROOM_0_Z3_SUPPLYINLET,BREAK_ROOM_0_Z3_COOLC-HEATCNODE,Air Nodes
 Component Set,8,BRANCH,BREAK_ROOM_0_Z3_MAINBRANCH,COIL:HEATING:ELECTRIC,BREAK_ROOM_0_Z3_HEATINGCOIL,BREAK_ROOM_0_Z3_COOLC-HEATCNODE,BREAK_ROOM_0_Z3_HEATC-FANNODE,Air Nodes
 Component Set,9,BRANCH,BREAK_ROOM_0_Z3_MAINBRANCH,FAN:VARIABLEVOLUME,BREAK_ROOM_0_Z3_SUPPLYFAN,BREAK_ROOM_0_Z3_HEATC-FANNODE,BREAK_ROOM_0_Z3_SUPPLYEQUIPMENTOUTLETNODE,Air Nodes
 Component Set,10,BRANCH,MECHANICAL_0_Z4_MAINBRANCH,COILSYSTEM:COOLING:DX,MECHANICAL_0_Z4_COOLINGCOIL,MECHANICAL_0_Z4_SUPPLYINLET,MECHANICAL_0_Z4_COOLC-HEATCNODE,Air Nodes
 Component Set,11,BRANCH,MECHANICAL_0_Z4_MAINBRANCH,COIL:HEATING:ELECTRIC,MECHANICAL_0_Z4_HEATINGCOIL,MECHANICAL_0_Z4_COOLC-HEATCNODE,MECHANICAL_0_Z4_HEATC-FANNODE,Air Nodes
 Component Set,12,BRANCH,MECHANICAL_0_Z4_MAINBRANCH,FAN:VARIABLEVOLUME,MECHANICAL_0_Z4_SUPPLYFAN,MECHANICAL_0_Z4_HEATC-FANNODE,MECHANICAL_0_Z4_SUPPLYEQUIPMENTOUTLETNODE,Air Nodes
 Component Set,13,BRANCH,OFFICE_OPEN_0_Z5_MAINBRANCH,COILSYSTEM:COOLING:DX,OFFICE_OPEN_0_Z5_COOLINGCOIL,OFFICE_OPEN_0_Z5_SUPPLYINLET,OFFICE_OPEN_0_Z5_COOLC-HEATCNODE,Air Nodes
 Component Set,14,BRANCH,OFFICE_OPEN_0_Z5_MAINBRANCH,COIL:HEATING:ELECTRIC,OFFICE_OPEN_0_Z5_HEATINGCOIL,OFFICE_OPEN_0_Z5_COOLC-HEATCNODE,OFFICE_OPEN_0_Z5_HEATC-FANNODE,Air Nodes
 Component Set,15,BRANCH,OFFICE_OPEN_0_Z5_MAINBRANCH,FAN:VARIABLEVOLUME,OFFICE_OPEN_0_Z5_SUPPLYFAN,OFFICE_OPEN_0_Z5_HEATC-FANNODE,OFFICE_OPEN_0_Z5_SUPPLYEQUIPMENTOUTLETNODE,Air Nodes
 Component Set,16,BRANCH,OFFICE_PRIVATE_0_Z6_MAINBRANCH,COILSYSTEM:COOLING:DX,OFFICE_PRIVATE_0_Z6_COOLINGCOIL,OFFICE_PRIVATE_0_Z6_SUPPLYINLET,OFFICE_PRIVATE_0_Z6_COOLC-HEATCNODE,Air Nodes
 Component Set,17,BRANCH,OFFICE_PRIVATE_0_Z6_MAINBRANCH,COIL:HEATING:ELECTRIC,OFFICE_PRIVATE_0_Z6_HEATINGCOIL,OFFICE_PRIVATE_0_Z6_COOLC-HEATCNODE,OFFICE_PRIVATE_0_Z6_HEATC-FANNODE,Air Nodes
 Component Set,18,BRANCH,OFFICE_PRIVATE_0_Z6_MAINBRANCH,FAN:VARIABLEVOLUME,OFFICE_PRIVATE_0_Z6_SUPPLYFAN,OFFICE_PRIVATE_0_Z6_HEATC-FANNODE,OFFICE_PRIVATE_0_Z6_SUPPLYEQUIPMENTOUTLETNODE,Air Nodes
 Component Set,19,BRANCH,STORAGE_0_Z7_MAINBRANCH,COILSYSTEM:COOLING:DX,STORAGE_0_Z7_COOLINGCOIL,STORAGE_0_Z7_SUPPLYINLET,STORAGE_0_Z7_COOLC-HEATCNODE,Air Nodes
 Component Set,20,BRANCH,STORAGE_0_Z7_MAINBRANCH,COIL:HEATING:ELECTRIC,STORAGE_0_Z7_HEATINGCOIL,STORAGE_0_Z7_COOLC-HEATCNODE,STORAGE_0_Z7_HEATC-FANNODE,Air Nodes
 Component Set,21,BRANCH,STORAGE_0_Z7_MAINBRANCH,FAN:VARIABLEVOLUME,STORAGE_0_Z7_SUPPLYFAN,STORAGE_0_Z7_HEATC-FANNODE,STORAGE_0_Z7_SUPPLYEQUIPMENTOUTLETNODE,Air Nodes
 Component Set,22,BRANCH,BREAK_ROOM_1_Z8_MAINBRANCH,COILSYSTEM:COOLING:DX,BREAK_ROOM_1_Z8_COOLINGCOIL,BREAK_ROOM_1_Z8_SUPPLYINLET,BREAK_ROOM_1_Z8_COOLC-HEATCNODE,Air Nodes
 Component Set,23,BRANCH,BREAK_ROOM_1_Z8_MAINBRANCH,COIL:HEATING:ELECTRIC,BREAK_ROOM_1_Z8_HEATINGCOIL,BREAK_ROOM_1_Z8_COOLC-HEATCNODE,BREAK_ROOM_1_Z8_HEATC-FANNODE,Air Nodes
 Component Set,24,BRANCH,BREAK_ROOM_1_Z8_MAINBRANCH,FAN:VARIABLEVOLUME,BREAK_ROOM_1_Z8_SUPPLYFAN,BREAK_ROOM_1_Z8_HEATC-FANNODE,BREAK_ROOM_1_Z8_SUPPLYEQUIPMENTOUTLETNODE,Air Nodes
 Component Set,25,BRANCH,MECHANICAL_1_Z9_MAINBRANCH,COILSYSTEM:COOLING:DX,MECHANICAL_1_Z9_COOLINGCOIL,MECHANICAL_1_Z9_SUPPLYINLET,MECHANICAL_1_Z9_COOLC-HEATCNODE,Air Nodes
 Component Set,26,BRANCH,MECHANICAL_1_Z9_MAINBRANCH,COIL:HEATING:ELECTRIC,MECHANICAL_1_Z9_HEATINGCOIL,MECHANICAL_1_Z9_COOLC-HEATCNODE,MECHANICAL_1_Z9_HEATC-FANNODE,Air Nodes
 Component Set,27,BRANCH,MECHANICAL_1_Z9_MAINBRANCH,FAN:VARIABLEVOLUME,MECHANICAL_1_Z9_SUPPLYFAN,MECHANICAL_1_Z9_HEATC-FANNODE,MECHANICAL_1_Z9_SUPPLYEQUIPMENTOUTLETNODE,Air Nodes
 Component Set,28,BRANCH,OFFICE_OPEN_1_Z10_MAINBRANCH,COILSYSTEM:COOLING:DX,OFFICE_OPEN_1_Z10_COOLINGCOIL,OFFICE_OPEN_1_Z10_SUPPLYINLET,OFFICE_OPEN_1_Z10_COOLC-HEATCNODE,Air Nodes
 Component Set,29,BRANCH,OFFICE_OPEN_1_Z10_MAINBRANCH,COIL:HEATING:ELECTRIC,OFFICE_OPEN_1_Z10_HEATINGCOIL,OFFICE_OPEN_1_Z10_COOLC-HEATCNODE,OFFICE_OPEN_1_Z10_HEATC-FANNODE,Air Nodes
 Component Set,30,BRANCH,OFFICE_OPEN_1_Z10_MAINBRANCH,FAN:VARIABLEVOLUME,OFFICE_OPEN_1_Z10_SUPPLYFAN,OFFICE_OPEN_1_Z10_HEATC-FANNODE,OFFICE_OPEN_1_Z10_SUPPLYEQUIPMENTOUTLETNODE,Air Nodes
 Component Set,31,BRANCH,STORAGE_1_Z11_MAINBRANCH,COILSYSTEM:COOLING:DX,STORAGE_1_Z11_COOLINGCOIL,STORAGE_1_Z11_SUPPLYINLET,STORAGE_1_Z11_COOLC-HEATCNODE,Air Nodes
 Component Set,32,BRANCH,STORAGE_1_Z11_MAINBRANCH,COIL:HEATING:ELECTRIC,STORAGE_1_Z11_HEATINGCOIL,STORAGE_1_Z11_COOLC-HEATCNODE,STORAGE_1_Z11_HEATC-FANNODE,Air Nodes
 Component Set,33,BRANCH,STORAGE_1_Z11_MAINBRANCH,FAN:VARIABLEVOLUME,STORAGE_1_Z11_SUPPLYFAN,STORAGE_1_Z11_HEATC-FANNODE,STORAGE_1_Z11_SUPPLYEQUIPMENTOUTLETNODE,Air Nodes
 Component Set,34,BRANCH,LOBBY_2_Z12_MAINBRANCH,COILSYSTEM:COOLING:DX,LOBBY_2_Z12_COOLINGCOIL,LOBBY_2_Z12_SUPPLYINLET,LOBBY_2_Z12_COOLC-HEATCNODE,Air Nodes
 Component Set,35,BRANCH,LOBBY_2_Z12_MAINBRANCH,COIL:HEATING:ELECTRIC,LOBBY_2_Z12_HEATINGCOIL,LOBBY_2_Z12_COOLC-HEATCNODE,LOBBY_2_Z12_HEATC-FANNODE,Air Nodes
 Component Set,36,BRANCH,LOBBY_2_Z12_MAINBRANCH,FAN:VARIABLEVOLUME,LOBBY_2_Z12_SUPPLYFAN,LOBBY_2_Z12_HEATC-FANNODE,LOBBY_2_Z12_SUPPLYEQUIPMENTOUTLETNODE,Air Nodes
 Component Set,37,BRANCH,BREAK_ROOM_2_Z13_MAINBRANCH,COILSYSTEM:COOLING:DX,BREAK_ROOM_2_Z13_COOLINGCOIL,BREAK_ROOM_2_Z13_SUPPLYINLET,BREAK_ROOM_2_Z13_COOLC-HEATCNODE,Air Nodes
 Component Set,38,BRANCH,BREAK_ROOM_2_Z13_MAINBRANCH,COIL:HEATING:ELECTRIC,BREAK_ROOM_2_Z13_HEATINGCOIL,BREAK_ROOM_2_Z13_COOLC-HEATCNODE,BREAK_ROOM_2_Z13_HEATC-FANNODE,Air Nodes
 Component Set,39,BRANCH,BREAK_ROOM_2_Z13_MAINBRANCH,FAN:VARIABLEVOLUME,BREAK_ROOM_2_Z13_SUPPLYFAN,BREAK_ROOM_2_Z13_HEATC-FANNODE,BREAK_ROOM_2_Z13_SUPPLYEQUIPMENTOUTLETNODE,Air Nodes
 Component Set,40,BRANCH,MECHANICAL_2_Z14_MAINBRANCH,COILSYSTEM:COOLING:DX,MECHANICAL_2_Z14_COOLINGCOIL,MECHANICAL_2_Z14_SUPPLYINLET,MECHANICAL_2_Z14_COOLC-HEATCNODE,Air Nodes
 Component Set,41,BRANCH,MECHANICAL_2_Z14_MAINBRANCH,COIL:HEATING:ELECTRIC,MECHANICAL_2_Z14_HEATINGCOIL,MECHANICAL_2_Z14_COOLC-HEATCNODE,MECHANICAL_2_Z14_HEATC-FANNODE,Air Nodes
 Component Set,42,BRANCH,MECHANICAL_2_Z14_MAINBRANCH,FAN:VARIABLEVOLUME,MECHANICAL_2_Z14_SUPPLYFAN,MECHANICAL_2_Z14_HEATC-FANNODE,MECHANICAL_2_Z14_SUPPLYEQUIPMENTOUTLETNODE,Air Nodes
 Component Set,43,BRANCH,OFFICE_OPEN_2_Z15_MAINBRANCH,COILSYSTEM:COOLING:DX,OFFICE_OPEN_2_Z15_COOLINGCOIL,OFFICE_OPEN_2_Z15_SUPPLYINLET,OFFICE_OPEN_2_Z15_COOLC-HEATCNODE,Air Nodes
 Component Set,44,BRANCH,OFFICE_OPEN_2_Z15_MAINBRANCH,COIL:HEATING:ELECTRIC,OFFICE_OPEN_2_Z15_HEATINGCOIL,OFFICE_OPEN_2_Z15_COOLC-HEATCNODE,OFFICE_OPEN_2_Z15_HEATC-FANNODE,Air Nodes
 Component Set,45,BRANCH,OFFICE_OPEN_2_Z15_MAINBRANCH,FAN:VARIABLEVOLUME,OFFICE_OPEN_2_Z15_SUPPLYFAN,OFFICE_OPEN_2_Z15_HEATC-FANNODE,OFFICE_OPEN_2_Z15_SUPPLYEQUIPMENTOUTLETNODE,Air Nodes
 Component Set,46,BRANCH,OFFICE_PRIVATE_2_Z16_MAINBRANCH,COILSYSTEM:COOLING:DX,OFFICE_PRIVATE_2_Z16_COOLINGCOIL,OFFICE_PRIVATE_2_Z16_SUPPLYINLET,OFFICE_PRIVATE_2_Z16_COOLC-HEATCNODE,Air Nodes
 Component Set,47,BRANCH,OFFICE_PRIVATE_2_Z16_MAINBRANCH,COIL:HEATING:ELECTRIC,OFFICE_PRIVATE_2_Z16_HEATINGCOIL,OFFICE_PRIVATE_2_Z16_COOLC-HEATCNODE,OFFICE_PRIVATE_2_Z16_HEATC-FANNODE,Air Nodes
 Component Set,48,BRANCH,OFFICE_PRIVATE_2_Z16_MAINBRANCH,FAN:VARIABLEVOLUME,OFFICE_PRIVATE_2_Z16_SUPPLYFAN,OFFICE_PRIVATE_2_Z16_HEATC-FANNODE,OFFICE_PRIVATE_2_Z16_SUPPLYEQUIPMENTOUTLETNODE,Air Nodes
 Component Set,49,BRANCH,STORAGE_2_Z17_MAINBRANCH,COILSYSTEM:COOLING:DX,STORAGE_2_Z17_COOLINGCOIL,STORAGE_2_Z17_SUPPLYINLET,STORAGE_2_Z17_COOLC-HEATCNODE,Air Nodes
 Component Set,50,BRANCH,STORAGE_2_Z17_MAINBRANCH,COIL:HEATING:ELECTRIC,STORAGE_2_Z17_HEATINGCOIL,STORAGE_2_Z17_COOLC-HEATCNODE,STORAGE_2_Z17_HEATC-FANNODE,Air Nodes
 Component Set,51,BRANCH,STORAGE_2_Z17_MAINBRANCH,FAN:VARIABLEVOLUME,STORAGE_2_Z17_SUPPLYFAN,STORAGE_2_Z17_HEATC-FANNODE,STORAGE_2_Z17_SUPPLYEQUIPMENTOUTLETNODE,Air Nodes
 Component Set,52,BRANCH,LOBBY_3_Z18_MAINBRANCH,COILSYSTEM:COOLING:DX,LOBBY_3_Z18_COOLINGCOIL,LOBBY_3_Z18_SUPPLYINLET,LOBBY_3_Z18_COOLC-HEATCNODE,Air Nodes
 Component Set,53,BRANCH,LOBBY_3_Z18_MAINBRANCH,COIL:HEATING:ELECTRIC,LOBBY_3_Z18_HEATINGCOIL,LOBBY_3_Z18_COOLC-HEATCNODE,LOBBY_3_Z18_HEATC-FANNODE,Air Nodes
 Component Set,54,BRANCH,LOBBY_3_Z18_MAINBRANCH,FAN:VARIABLEVOLUME,LOBBY_3_Z18_SUPPLYFAN,LOBBY_3_Z18_HEATC-FANNODE,LOBBY_3_Z18_SUPPLYEQUIPMENTOUTLETNODE,Air Nodes
 Component Set,55,BRANCH,CONFERENCE_3_Z19_MAINBRANCH,COILSYSTEM:COOLING:DX,CONFERENCE_3_Z19_COOLINGCOIL,CONFERENCE_3_Z19_SUPPLYINLET,CONFERENCE_3_Z19_COOLC-HEATCNODE,Air Nodes
 Component Set,56,BRANCH,CONFERENCE_3_Z19_MAINBRANCH,COIL:HEATING:ELECTRIC,CONFERENCE_3_Z19_HEATINGCOIL,CONFERENCE_3_Z19_COOLC-HEATCNODE,CONFERENCE_3_Z19_HEATC-FANNODE,Air Nodes
 Component Set,57,BRANCH,CONFERENCE_3_Z19_MAINBRANCH,FAN:VARIABLEVOLUME,CONFERENCE_3_Z19_SUPPLYFAN,CONFERENCE_3_Z19_HEATC-FANNODE,CONFERENCE_3_Z19_SUPPLYEQUIPMENTOUTLETNODE,Air Nodes
 Component Set,58,BRANCH,MECHANICAL_3_Z20_MAINBRANCH,COILSYSTEM:COOLING:DX,MECHANICAL_3_Z20_COOLINGCOIL,MECHANICAL_3_Z20_SUPPLYINLET,MECHANICAL_3_Z20_COOLC-HEATCNODE,Air Nodes
 Component Set,59,BRANCH,MECHANICAL_3_Z20_MAINBRANCH,COIL:HEATING:ELECTRIC,MECHANICAL_3_Z20_HEATINGCOIL,MECHANICAL_3_Z20_COOLC-HEATCNODE,MECHANICAL_3_Z20_HEATC-FANNODE,Air Nodes
 Component Set,60,BRANCH,MECHANICAL_3_Z20_MAINBRANCH,FAN:VARIABLEVOLUME,MECHANICAL_3_Z20_SUPPLYFAN,MECHANICAL_3_Z20_HEATC-FANNODE,MECHANICAL_3_Z20_SUPPLYEQUIPMENTOUTLETNODE,Air Nodes
 Component Set,61,BRANCH,STORAGE_3_Z21_MAINBRANCH,COILSYSTEM:COOLING:DX,STORAGE_3_Z21_COOLINGCOIL,STORAGE_3_Z21_SUPPLYINLET,STORAGE_3_Z21_COOLC-HEATCNODE,Air Nodes
 Component Set,62,BRANCH,STORAGE_3_Z21_MAINBRANCH,COIL:HEATING:ELECTRIC,STORAGE_3_Z21_HEATINGCOIL,STORAGE_3_Z21_COOLC-HEATCNODE,STORAGE_3_Z21_HEATC-FANNODE,Air Nodes
 Component Set,63,BRANCH,STORAGE_3_Z21_MAINBRANCH,FAN:VARIABLEVOLUME,STORAGE_3_Z21_SUPPLYFAN,STORAGE_3_Z21_HEATC-FANNODE,STORAGE_3_Z21_SUPPLYEQUIPMENTOUTLETNODE,Air Nodes
 Component Set,64,BRANCH,LOBBY_4_Z22_MAINBRANCH,COILSYSTEM:COOLING:DX,LOBBY_4_Z22_COOLINGCOIL,LOBBY_4_Z22_SUPPLYINLET,LOBBY_4_Z22_COOLC-HEATCNODE,Air Nodes
 Component Set,65,BRANCH,LOBBY_4_Z22_MAINBRANCH,COIL:HEATING:ELECTRIC,LOBBY_4_Z22_HEATINGCOIL,LOBBY_4_Z22_COOLC-HEATCNODE,LOBBY_4_Z22_HEATC-FANNODE,Air Nodes
 Component Set,66,BRANCH,LOBBY_4_Z22_MAINBRANCH,FAN:VARIABLEVOLUME,LOBBY_4_Z22_SUPPLYFAN,LOBBY_4_Z22_HEATC-FANNODE,LOBBY_4_Z22_SUPPLYEQUIPMENTOUTLETNODE,Air Nodes
 Component Set,67,BRANCH,CONFERENCE_4_Z23_MAINBRANCH,COILSYSTEM:COOLING:DX,CONFERENCE_4_Z23_COOLINGCOIL,CONFERENCE_4_Z23_SUPPLYINLET,CONFERENCE_4_Z23_COOLC-HEATCNODE,Air Nodes
 Component Set,68,BRANCH,CONFERENCE_4_Z23_MAINBRANCH,COIL:HEATING:ELECTRIC,CONFERENCE_4_Z23_HEATINGCOIL,CONFERENCE_4_Z23_COOLC-HEATCNODE,CONFERENCE_4_Z23_HEATC-FANNODE,Air Nodes
 Component Set,69,BRANCH,CONFERENCE_4_Z23_MAINBRANCH,FAN:VARIABLEVOLUME,CONFERENCE_4_Z23_SUPPLYFAN,CONFERENCE_4_Z23_HEATC-FANNODE,CONFERENCE_4_Z23_SUPPLYEQUIPMENTOUTLETNODE,Air Nodes
 Component Set,70,BRANCH,BREAK_ROOM_4_Z24_MAINBRANCH,COILSYSTEM:COOLING:DX,BREAK_ROOM_4_Z24_COOLINGCOIL,BREAK_ROOM_4_Z24_SUPPLYINLET,BREAK_ROOM_4_Z24_COOLC-HEATCNODE,Air Nodes
 Component Set,71,BRANCH,BREAK_ROOM_4_Z24_MAINBRANCH,COIL:HEATING:ELECTRIC,BREAK_ROOM_4_Z24_HEATINGCOIL,BREAK_ROOM_4_Z24_COOLC-HEATCNODE,BREAK_ROOM_4_Z24_HEATC-FANNODE,Air Nodes
 Component Set,72,BRANCH,BREAK_ROOM_4_Z24_MAINBRANCH,FAN:VARIABLEVOLUME,BREAK_ROOM_4_Z24_SUPPLYFAN,BREAK_ROOM_4_Z24_HEATC-FANNODE,BREAK_ROOM_4_Z24_SUPPLYEQUIPMENTOUTLETNODE,Air Nodes
 Component Set,73,BRANCH,MECHANICAL_4_Z25_MAINBRANCH,COILSYSTEM:COOLING:DX,MECHANICAL_4_Z25_COOLINGCOIL,MECHANICAL_4_Z25_SUPPLYINLET,MECHANICAL_4_Z25_COOLC-HEATCNODE,Air Nodes
 Component Set,74,BRANCH,MECHANICAL_4_Z25_MAINBRANCH,COIL:HEATING:ELECTRIC,MECHANICAL_4_Z25_HEATINGCOIL,MECHANICAL_4_Z25_COOLC-HEATCNODE,MECHANICAL_4_Z25_HEATC-FANNODE,Air Nodes
 Component Set,75,BRANCH,MECHANICAL_4_Z25_MAINBRANCH,FAN:VARIABLEVOLUME,MECHANICAL_4_Z25_SUPPLYFAN,MECHANICAL_4_Z25_HEATC-FANNODE,MECHANICAL_4_Z25_SUPPLYEQUIPMENTOUTLETNODE,Air Nodes
 Component Set,76,BRANCH,OFFICE_PRIVATE_4_Z26_MAINBRANCH,COILSYSTEM:COOLING:DX,OFFICE_PRIVATE_4_Z26_COOLINGCOIL,OFFICE_PRIVATE_4_Z26_SUPPLYINLET,OFFICE_PRIVATE_4_Z26_COOLC-HEATCNODE,Air Nodes
 Component Set,77,BRANCH,OFFICE_PRIVATE_4_Z26_MAINBRANCH,COIL:HEATING:ELECTRIC,OFFICE_PRIVATE_4_Z26_HEATINGCOIL,OFFICE_PRIVATE_4_Z26_COOLC-HEATCNODE,OFFICE_PRIVATE_4_Z26_HEATC-FANNODE,Air Nodes
[...]
 Non-Parent Node Connection,STORAGE_4_Z27_HEATC-FANNODE,COIL:HEATING:ELECTRIC,STORAGE_4_Z27_HEATINGCOIL,Sensor,1
 Non-Parent Node Connection,STORAGE_4_Z27_TERMINALOUTLET,COIL:HEATING:ELECTRIC,STORAGE_4_Z27_REHEATCOIL,Inlet,1
 Non-Parent Node Connection,STORAGE_4_Z27_ADUOUTLET,COIL:HEATING:ELECTRIC,STORAGE_4_Z27_REHEATCOIL,Outlet,1
 Non-Parent Node Connection,LOBBY_0_Z1_ZONEEQUIPMENTOUTLETNODE,AIRLOOPHVAC:ZONEMIXER,LOBBY_0_Z1_RETURNAIRMIXER,Outlet,1
 Non-Parent Node Connection,LOBBY_0_Z1_RETURNAIR,AIRLOOPHVAC:ZONEMIXER,LOBBY_0_Z1_RETURNAIRMIXER,Inlet,1
 Non-Parent Node Connection,CONFERENCE_0_Z2_ZONEEQUIPMENTOUTLETNODE,AIRLOOPHVAC:ZONEMIXER,CONFERENCE_0_Z2_RETURNAIRMIXER,Outlet,1
 Non-Parent Node Connection,CONFERENCE_0_Z2_RETURNAIR,AIRLOOPHVAC:ZONEMIXER,CONFERENCE_0_Z2_RETURNAIRMIXER,Inlet,1
 Non-Parent Node Connection,BREAK_ROOM_0_Z3_ZONEEQUIPMENTOUTLETNODE,AIRLOOPHVAC:ZONEMIXER,BREAK_ROOM_0_Z3_RETURNAIRMIXER,Outlet,1
 Non-Parent Node Connection,BREAK_ROOM_0_Z3_RETURNAIR,AIRLOOPHVAC:ZONEMIXER,BREAK_ROOM_0_Z3_RETURNAIRMIXER,Inlet,1
 Non-Parent Node Connection,MECHANICAL_0_Z4_ZONEEQUIPMENTOUTLETNODE,AIRLOOPHVAC:ZONEMIXER,MECHANICAL_0_Z4_RETURNAIRMIXER,Outlet,1
 Non-Parent Node Connection,MECHANICAL_0_Z4_RETURNAIR,AIRLOOPHVAC:ZONEMIXER,MECHANICAL_0_Z4_RETURNAIRMIXER,Inlet,1
 Non-Parent Node Connection,OFFICE_OPEN_0_Z5_ZONEEQUIPMENTOUTLETNODE,AIRLOOPHVAC:ZONEMIXER,OFFICE_OPEN_0_Z5_RETURNAIRMIXER,Outlet,1
 Non-Parent Node Connection,OFFICE_OPEN_0_Z5_RETURNAIR,AIRLOOPHVAC:ZONEMIXER,OFFICE_OPEN_0_Z5_RETURNAIRMIXER,Inlet,1
 Non-Parent Node Connection,OFFICE_PRIVATE_0_Z6_ZONEEQUIPMENTOUTLETNODE,AIRLOOPHVAC:ZONEMIXER,OFFICE_PRIVATE_0_Z6_RETURNAIRMIXER,Outlet,1
 Non-Parent Node Connection,OFFICE_PRIVATE_0_Z6_RETURNAIR,AIRLOOPHVAC:ZONEMIXER,OFFICE_PRIVATE_0_Z6_RETURNAIRMIXER,Inlet,1
 Non-Parent Node Connection,STORAGE_0_Z7_ZONEEQUIPMENTOUTLETNODE,AIRLOOPHVAC:ZONEMIXER,STORAGE_0_Z7_RETURNAIRMIXER,Outlet,1
 Non-Parent Node Connection,STORAGE_0_Z7_RETURNAIR,AIRLOOPHVAC:ZONEMIXER,STORAGE_0_Z7_RETURNAIRMIXER,Inlet,1
 Non-Parent Node Connection,BREAK_ROOM_1_Z8_ZONEEQUIPMENTOUTLETNODE,AIRLOOPHVAC:ZONEMIXER,BREAK_ROOM_1_Z8_RETURNAIRMIXER,Outlet,1
 Non-Parent Node Connection,BREAK_ROOM_1_Z8_RETURNAIR,AIRLOOPHVAC:ZONEMIXER,BREAK_ROOM_1_Z8_RETURNAIRMIXER,Inlet,1
 Non-Parent Node Connection,MECHANICAL_1_Z9_ZONEEQUIPMENTOUTLETNODE,AIRLOOPHVAC:ZONEMIXER,MECHANICAL_1_Z9_RETURNAIRMIXER,Outlet,1
 Non-Parent Node Connection,MECHANICAL_1_Z9_RETURNAIR,AIRLOOPHVAC:ZONEMIXER,MECHANICAL_1_Z9_RETURNAIRMIXER,Inlet,1
 Non-Parent Node Connection,OFFICE_OPEN_1_Z10_ZONEEQUIPMENTOUTLETNODE,AIRLOOPHVAC:ZONEMIXER,OFFICE_OPEN_1_Z10_RETURNAIRMIXER,Outlet,1
 Non-Parent Node Connection,OFFICE_OPEN_1_Z10_RETURNAIR,AIRLOOPHVAC:ZONEMIXER,OFFICE_OPEN_1_Z10_RETURNAIRMIXER,Inlet,1
 Non-Parent Node Connection,STORAGE_1_Z11_ZONEEQUIPMENTOUTLETNODE,AIRLOOPHVAC:ZONEMIXER,STORAGE_1_Z11_RETURNAIRMIXER,Outlet,1
 Non-Parent Node Connection,STORAGE_1_Z11_RETURNAIR,AIRLOOPHVAC:ZONEMIXER,STORAGE_1_Z11_RETURNAIRMIXER,Inlet,1
 Non-Parent Node Connection,LOBBY_2_Z12_ZONEEQUIPMENTOUTLETNODE,AIRLOOPHVAC:ZONEMIXER,LOBBY_2_Z12_RETURNAIRMIXER,Outlet,1
 Non-Parent Node Connection,LOBBY_2_Z12_RETURNAIR,AIRLOOPHVAC:ZONEMIXER,LOBBY_2_Z12_RETURNAIRMIXER,Inlet,1
 Non-Parent Node Connection,BREAK_ROOM_2_Z13_ZONEEQUIPMENTOUTLETNODE,AIRLOOPHVAC:ZONEMIXER,BREAK_ROOM_2_Z13_RETURNAIRMIXER,Outlet,1
 Non-Parent Node Connection,BREAK_ROOM_2_Z13_RETURNAIR,AIRLOOPHVAC:ZONEMIXER,BREAK_ROOM_2_Z13_RETURNAIRMIXER,Inlet,1
 Non-Parent Node Connection,MECHANICAL_2_Z14_ZONEEQUIPMENTOUTLETNODE,AIRLOOPHVAC:ZONEMIXER,MECHANICAL_2_Z14_RETURNAIRMIXER,Outlet,1
 Non-Parent Node Connection,MECHANICAL_2_Z14_RETURNAIR,AIRLOOPHVAC:ZONEMIXER,MECHANICAL_2_Z14_RETURNAIRMIXER,Inlet,1
 Non-Parent Node Connection,OFFICE_OPEN_2_Z15_ZONEEQUIPMENTOUTLETNODE,AIRLOOPHVAC:ZONEMIXER,OFFICE_OPEN_2_Z15_RETURNAIRMIXER,Outlet,1
 Non-Parent Node Connection,OFFICE_OPEN_2_Z15_RETURNAIR,AIRLOOPHVAC:ZONEMIXER,OFFICE_OPEN_2_Z15_RETURNAIRMIXER,Inlet,1
 Non-Parent Node Connection,OFFICE_PRIVATE_2_Z16_ZONEEQUIPMENTOUTLETNODE,AIRLOOPHVAC:ZONEMIXER,OFFICE_PRIVATE_2_Z16_RETURNAIRMIXER,Outlet,1
 Non-Parent Node Connection,OFFICE_PRIVATE_2_Z16_RETURNAIR,AIRLOOPHVAC:ZONEMIXER,OFFICE_PRIVATE_2_Z16_RETURNAIRMIXER,Inlet,1
 Non-Parent Node Connection,STORAGE_2_Z17_ZONEEQUIPMENTOUTLETNODE,AIRLOOPHVAC:ZONEMIXER,STORAGE_2_Z17_RETURNAIRMIXER,Outlet,1
 Non-Parent Node Connection,STORAGE_2_Z17_RETURNAIR,AIRLOOPHVAC:ZONEMIXER,STORAGE_2_Z17_RETURNAIRMIXER,Inlet,1
 Non-Parent Node Connection,LOBBY_3_Z18_ZONEEQUIPMENTOUTLETNODE,AIRLOOPHVAC:ZONEMIXER,LOBBY_3_Z18_RETURNAIRMIXER,Outlet,1
 Non-Parent Node Connection,LOBBY_3_Z18_RETURNAIR,AIRLOOPHVAC:ZONEMIXER,LOBBY_3_Z18_RETURNAIRMIXER,Inlet,1
 Non-Parent Node Connection,CONFERENCE_3_Z19_ZONEEQUIPMENTOUTLETNODE,AIRLOOPHVAC:ZONEMIXER,CONFERENCE_3_Z19_RETURNAIRMIXER,Outlet,1
 Non-Parent Node Connection,CONFERENCE_3_Z19_RETURNAIR,AIRLOOPHVAC:ZONEMIXER,CONFERENCE_3_Z19_RETURNAIRMIXER,Inlet,1
 Non-Parent Node Connection,MECHANICAL_3_Z20_ZONEEQUIPMENTOUTLETNODE,AIRLOOPHVAC:ZONEMIXER,MECHANICAL_3_Z20_RETURNAIRMIXER,Outlet,1
 Non-Parent Node Connection,MECHANICAL_3_Z20_RETURNAIR,AIRLOOPHVAC:ZONEMIXER,MECHANICAL_3_Z20_RETURNAIRMIXER,Inlet,1
 Non-Parent Node Connection,STORAGE_3_Z21_ZONEEQUIPMENTOUTLETNODE,AIRLOOPHVAC:ZONEMIXER,STORAGE_3_Z21_RETURNAIRMIXER,Outlet,1
 Non-Parent Node Connection,STORAGE_3_Z21_RETURNAIR,AIRLOOPHVAC:ZONEMIXER,STORAGE_3_Z21_RETURNAIRMIXER,Inlet,1
 Non-Parent Node Connection,LOBBY_4_Z22_ZONEEQUIPMENTOUTLETNODE,AIRLOOPHVAC:ZONEMIXER,LOBBY_4_Z22_RETURNAIRMIXER,Outlet,1
 Non-Parent Node Connection,LOBBY_4_Z22_RETURNAIR,AIRLOOPHVAC:ZONEMIXER,LOBBY_4_Z22_RETURNAIRMIXER,Inlet,1
 Non-Parent Node Connection,CONFERENCE_4_Z23_ZONEEQUIPMENTOUTLETNODE,AIRLOOPHVAC:ZONEMIXER,CONFERENCE_4_Z23_RETURNAIRMIXER,Outlet,1
 Non-Parent Node Connection,CONFERENCE_4_Z23_RETURNAIR,AIRLOOPHVAC:ZONEMIXER,CONFERENCE_4_Z23_RETURNAIRMIXER,Inlet,1
 Non-Parent Node Connection,BREAK_ROOM_4_Z24_ZONEEQUIPMENTOUTLETNODE,AIRLOOPHVAC:ZONEMIXER,BREAK_ROOM_4_Z24_RETURNAIRMIXER,Outlet,1
 Non-Parent Node Connection,BREAK_ROOM_4_Z24_RETURNAIR,AIRLOOPHVAC:ZONEMIXER,BREAK_ROOM_4_Z24_RETURNAIRMIXER,Inlet,1
 Non-Parent Node Connection,MECHANICAL_4_Z25_ZONEEQUIPMENTOUTLETNODE,AIRLOOPHVAC:ZONEMIXER,MECHANICAL_4_Z25_RETURNAIRMIXER,Outlet,1
 Non-Parent Node Connection,MECHANICAL_4_Z25_RETURNAIR,AIRLOOPHVAC:ZONEMIXER,MECHANICAL_4_Z25_RETURNAIRMIXER,Inlet,1
 Non-Parent Node Connection,OFFICE_PRIVATE_4_Z26_ZONEEQUIPMENTOUTLETNODE,AIRLOOPHVAC:ZONEMIXER,OFFICE_PRIVATE_4_Z26_RETURNAIRMIXER,Outlet,1
 Non-Parent Node Connection,OFFICE_PRIVATE_4_Z26_RETURNAIR,AIRLOOPHVAC:ZONEMIXER,OFFICE_PRIVATE_4_Z26_RETURNAIRMIXER,Inlet,1
 Non-Parent Node Connection,STORAGE_4_Z27_ZONEEQUIPMENTOUTLETNODE,AIRLOOPHVAC:ZONEMIXER,STORAGE_4_Z27_RETURNAIRMIXER,Outlet,1
 Non-Parent Node Connection,STORAGE_4_Z27_RETURNAIR,AIRLOOPHVAC:ZONEMIXER,STORAGE_4_Z27_RETURNAIRMIXER,Inlet,1
 Non-Parent Node Connection,LOBBY_0_Z1_HEATC-FANNODE,FAN:VARIABLEVOLUME,LOBBY_0_Z1_SUPPLYFAN,Inlet,1
 Non-Parent Node Connection,LOBBY_0_Z1_SUPPLYEQUIPMENTOUTLETNODE,FAN:VARIABLEVOLUME,LOBBY_0_Z1_SUPPLYFAN,Outlet,1
 Non-Parent Node Connection,CONFERENCE_0_Z2_HEATC-FANNODE,FAN:VARIABLEVOLUME,CONFERENCE_0_Z2_SUPPLYFAN,Inlet,1
 Non-Parent Node Connection,CONFERENCE_0_Z2_SUPPLYEQUIPMENTOUTLETNODE,FAN:VARIABLEVOLUME,CONFERENCE_0_Z2_SUPPLYFAN,Outlet,1
 Non-Parent Node Connection,BREAK_ROOM_0_Z3_HEATC-FANNODE,FAN:VARIABLEVOLUME,BREAK_ROOM_0_Z3_SUPPLYFAN,Inlet,1
 Non-Parent Node Connection,BREAK_ROOM_0_Z3_SUPPLYEQUIPMENTOUTLETNODE,FAN:VARIABLEVOLUME,BREAK_ROOM_0_Z3_SUPPLYFAN,Outlet,1
 Non-Parent Node Connection,MECHANICAL_0_Z4_HEATC-FANNODE,FAN:VARIABLEVOLUME,MECHANICAL_0_Z4_SUPPLYFAN,Inlet,1
 Non-Parent Node Connection,MECHANICAL_0_Z4_SUPPLYEQUIPMENTOUTLETNODE,FAN:VARIABLEVOLUME,MECHANICAL_0_Z4_SUPPLYFAN,Outlet,1
 Non-Parent Node Connection,OFFICE_OPEN_0_Z5_HEATC-FANNODE,FAN:VARIABLEVOLUME,OFFICE_OPEN_0_Z5_SUPPLYFAN,Inlet,1
 Non-Parent Node Connection,OFFICE_OPEN_0_Z5_SUPPLYEQUIPMENTOUTLETNODE,FAN:VARIABLEVOLUME,OFFICE_OPEN_0_Z5_SUPPLYFAN,Outlet,1
 Non-Parent Node Connection,OFFICE_PRIVATE_0_Z6_HEATC-FANNODE,FAN:VARIABLEVOLUME,OFFICE_PRIVATE_0_Z6_SUPPLYFAN,Inlet,1
 Non-Parent Node Connection,OFFICE_PRIVATE_0_Z6_SUPPLYEQUIPMENTOUTLETNODE,FAN:VARIABLEVOLUME,OFFICE_PRIVATE_0_Z6_SUPPLYFAN,Outlet,1
 Non-Parent Node Connection,STORAGE_0_Z7_HEATC-FANNODE,FAN:VARIABLEVOLUME,STORAGE_0_Z7_SUPPLYFAN,Inlet,1
 Non-Parent Node Connection,STORAGE_0_Z7_SUPPLYEQUIPMENTOUTLETNODE,FAN:VARIABLEVOLUME,STORAGE_0_Z7_SUPPLYFAN,Outlet,1
 Non-Parent Node Connection,BREAK_ROOM_1_Z8_HEATC-FANNODE,FAN:VARIABLEVOLUME,BREAK_ROOM_1_Z8_SUPPLYFAN,Inlet,1
 Non-Parent Node Connection,BREAK_ROOM_1_Z8_SUPPLYEQUIPMENTOUTLETNODE,FAN:VARIABLEVOLUME,BREAK_ROOM_1_Z8_SUPPLYFAN,Outlet,1
 Non-Parent Node Connection,MECHANICAL_1_Z9_HEATC-FANNODE,FAN:VARIABLEVOLUME,MECHANICAL_1_Z9_SUPPLYFAN,Inlet,1
 Non-Parent Node Connection,MECHANICAL_1_Z9_SUPPLYEQUIPMENTOUTLETNODE,FAN:VARIABLEVOLUME,MECHANICAL_1_Z9_SUPPLYFAN,Outlet,1
 Non-Parent Node Connection,OFFICE_OPEN_1_Z10_HEATC-FANNODE,FAN:VARIABLEVOLUME,OFFICE_OPEN_1_Z10_SUPPLYFAN,Inlet,1
 Non-Parent Node Connection,OFFICE_OPEN_1_Z10_SUPPLYEQUIPMENTOUTLETNODE,FAN:VARIABLEVOLUME,OFFICE_OPEN_1_Z10_SUPPLYFAN,Outlet,1
 Non-Parent Node Connection,STORAGE_1_Z11_HEATC-FANNODE,FAN:VARIABLEVOLUME,STORAGE_1_Z11_SUPPLYFAN,Inlet,1
 Non-Parent Node Connection,STORAGE_1_Z11_SUPPLYEQUIPMENTOUTLETNODE,FAN:VARIABLEVOLUME,STORAGE_1_Z11_SUPPLYFAN,Outlet,1
 Non-Parent Node Connection,LOBBY_2_Z12_HEATC-FANNODE,FAN:VARIABLEVOLUME,LOBBY_2_Z12_SUPPLYFAN,Inlet,1
 Non-Parent Node Connection,LOBBY_2_Z12_SUPPLYEQUIPMENTOUTLETNODE,FAN:VARIABLEVOLUME,LOBBY_2_Z12_SUPPLYFAN,Outlet,1
 Non-Parent Node Connection,BREAK_ROOM_2_Z13_HEATC-FANNODE,FAN:VARIABLEVOLUME,BREAK_ROOM_2_Z13_SUPPLYFAN,Inlet,1
 Non-Parent Node Connection,BREAK_ROOM_2_Z13_SUPPLYEQUIPMENTOUTLETNODE,FAN:VARIABLEVOLUME,BREAK_ROOM_2_Z13_SUPPLYFAN,Outlet,1
 Non-Parent Node Connection,MECHANICAL_2_Z14_HEATC-FANNODE,FAN:VARIABLEVOLUME,MECHANICAL_2_Z14_SUPPLYFAN,Inlet,1
 Non-Parent Node Connection,MECHANICAL_2_Z14_SUPPLYEQUIPMENTOUTLETNODE,FAN:VARIABLEVOLUME,MECHANICAL_2_Z14_SUPPLYFAN,Outlet,1
 Non-Parent Node Connection,OFFICE_OPEN_2_Z15_HEATC-FANNODE,FAN:VARIABLEVOLUME,OFFICE_OPEN_2_Z15_SUPPLYFAN,Inlet,1
 Non-Parent Node Connection,OFFICE_OPEN_2_Z15_SUPPLYEQUIPMENTOUTLETNODE,FAN:VARIABLEVOLUME,OFFICE_OPEN_2_Z15_SUPPLYFAN,Outlet,1
 Non-Parent Node Connection,OFFICE_PRIVATE_2_Z16_HEATC-FANNODE,FAN:VARIABLEVOLUME,OFFICE_PRIVATE_2_Z16_SUPPLYFAN,Inlet,1
 Non-Parent Node Connection,OFFICE_PRIVATE_2_Z16_SUPPLYEQUIPMENTOUTLETNODE,FAN:VARIABLEVOLUME,OFFICE_PRIVATE_2_Z16_SUPPLYFAN,Outlet,1
 Non-Parent Node Connection,STORAGE_2_Z17_HEATC-FANNODE,FAN:VARIABLEVOLUME,STORAGE_2_Z17_SUPPLYFAN,Inlet,1
 Non-Parent Node Connection,STORAGE_2_Z17_SUPPLYEQUIPMENTOUTLETNODE,FAN:VARIABLEVOLUME,STORAGE_2_Z17_SUPPLYFAN,Outlet,1
 Non-Parent Node Connection,LOBBY_3_Z18_HEATC-FANNODE,FAN:VARIABLEVOLUME,LOBBY_3_Z18_SUPPLYFAN,Inlet,1
 Non-Parent Node Connection,LOBBY_3_Z18_SUPPLYEQUIPMENTOUTLETNODE,FAN:VARIABLEVOLUME,LOBBY_3_Z18_SUPPLYFAN,Outlet,1
 Non-Parent Node Connection,CONFERENCE_3_Z19_HEATC-FANNODE,FAN:VARIABLEVOLUME,CONFERENCE_3_Z19_SUPPLYFAN,Inlet,1
 Non-Parent Node Connection,CONFERENCE_3_Z19_SUPPLYEQUIPMENTOUTLETNODE,FAN:VARIABLEVOLUME,CONFERENCE_3_Z19_SUPPLYFAN,Outlet,1
 Non-Parent Node Connection,MECHANICAL_3_Z20_HEATC-FANNODE,FAN:VARIABLEVOLUME,MECHANICAL_3_Z20_SUPPLYFAN,Inlet,1
 Non-Parent Node Connection,MECHANICAL_3_Z20_SUPPLYEQUIPMENTOUTLETNODE,FAN:VARIABLEVOLUME,MECHANICAL_3_Z20_SUPPLYFAN,Outlet,1
 Non-Parent Node Connection,STORAGE_3_Z21_HEATC-FANNODE,FAN:VARIABLEVOLUME,STORAGE_3_Z21_SUPPLYFAN,Inlet,1
 Non-Parent Node Connection,STORAGE_3_Z21_SUPPLYEQUIPMENTOUTLETNODE,FAN:VARIABLEVOLUME,STORAGE_3_Z21_SUPPLYFAN,Outlet,1
 Non-Parent Node Connection,LOBBY_4_Z22_HEATC-FANNODE,FAN:VARIABLEVOLUME,LOBBY_4_Z22_SUPPLYFAN,Inlet,1
 Non-Parent Node Connection,LOBBY_4_Z22_SUPPLYEQUIPMENTOUTLETNODE,FAN:VARIABLEVOLUME,LOBBY_4_Z22_SUPPLYFAN,Outlet,1
 Non-Parent Node Connection,CONFERENCE_4_Z23_HEATC-FANNODE,FAN:VARIABLEVOLUME,CONFERENCE_4_Z23_SUPPLYFAN,Inlet,1
 Non-Parent Node Connection,CONFERENCE_4_Z23_SUPPLYEQUIPMENTOUTLETNODE,FAN:VARIABLEVOLUME,CONFERENCE_4_Z23_SUPPLYFAN,Outlet,1
 Non-Parent Node Connection,BREAK_ROOM_4_Z24_HEATC-FANNODE,FAN:VARIABLEVOLUME,BREAK_ROOM_4_Z24_SUPPLYFAN,Inlet,1
 Non-Parent Node Connection,BREAK_ROOM_4_Z24_SUPPLYEQUIPMENTOUTLETNODE,FAN:VARIABLEVOLUME,BREAK_ROOM_4_Z24_SUPPLYFAN,Outlet,1
 Non-Parent Node Connection,MECHANICAL_4_Z25_HEATC-FANNODE,FAN:VARIABLEVOLUME,MECHANICAL_4_Z25_SUPPLYFAN,Inlet,1
 Non-Parent Node Connection,MECHANICAL_4_Z25_SUPPLYEQUIPMENTOUTLETNODE,FAN:VARIABLEVOLUME,MECHANICAL_4_Z25_SUPPLYFAN,Outlet,1
 Non-Parent Node Connection,OFFICE_PRIVATE_4_Z26_HEATC-FANNODE,FAN:VARIABLEVOLUME,OFFICE_PRIVATE_4_Z26_SUPPLYFAN,Inlet,1
 Non-Parent Node Connection,OFFICE_PRIVATE_4_Z26_SUPPLYEQUIPMENTOUTLETNODE,FAN:VARIABLEVOLUME,OFFICE_PRIVATE_4_Z26_SUPPLYFAN,Outlet,1
 Non-Parent Node Connection,STORAGE_4_Z27_HEATC-FANNODE,FAN:VARIABLEVOLUME,STORAGE_4_Z27_SUPPLYFAN,Inlet,1
 Non-Parent Node Connection,STORAGE_4_Z27_SUPPLYEQUIPMENTOUTLETNODE,FAN:VARIABLEVOLUME,STORAGE_4_Z27_SUPPLYFAN,Outlet,1
 Non-Parent Node Connection,LOBBY_0_Z1_SUPPLYINLET,COIL:COOLING:DX:SINGLESPEED,LOBBY_0_Z1_COOLINGCOILDX,Inlet,1
 Non-Parent Node Connection,LOBBY_0_Z1_COOLC-HEATCNODE,COIL:COOLING:DX:SINGLESPEED,LOBBY_0_Z1_COOLINGCOILDX,Outlet,1
 Non-Parent Node Connection,CONFERENCE_0_Z2_SUPPLYINLET,COIL:COOLING:DX:SINGLESPEED,CONFERENCE_0_Z2_COOLINGCOILDX,Inlet,1
 Non-Parent Node Connection,CONFERENCE_0_Z2_COOLC-HEATCNODE,COIL:COOLING:DX:SINGLESPEED,CONFERENCE_0_Z2_COOLINGCOILDX,Outlet,1
 Non-Parent Node Connection,BREAK_ROOM_0_Z3_SUPPLYINLET,COIL:COOLING:DX:SINGLESPEED,BREAK_ROOM_0_Z3_COOLINGCOILDX,Inlet,1
 Non-Parent Node Connection,BREAK_ROOM_0_Z3_COOLC-HEATCNODE,COIL:COOLING:DX:SINGLESPEED,BREAK_ROOM_0_Z3_COOLINGCOILDX,Outlet,1
 Non-Parent Node Connection,MECHANICAL_0_Z4_SUPPLYINLET,COIL:COOLING:DX:SINGLESPEED,MECHANICAL_0_Z4_COOLINGCOILDX,Inlet,1
 Non-Parent Node Connection,MECHANICAL_0_Z4_COOLC-HEATCNODE,COIL:COOLING:DX:SINGLESPEED,MECHANICAL_0_Z4_COOLINGCOILDX,Outlet,1
 Non-Parent Node Connection,OFFICE_OPEN_0_Z5_SUPPLYINLET,COIL:COOLING:DX:SINGLESPEED,OFFICE_OPEN_0_Z5_COOLINGCOILDX,Inlet,1
 Non-Parent Node Connection,OFFICE_OPEN_0_Z5_COOLC-HEATCNODE,COIL:COOLING:DX:SINGLESPEED,OFFICE_OPEN_0_Z5_COOLINGCOILDX,Outlet,1
 Non-Parent Node Connection,OFFICE_PRIVATE_0_Z6_SUPPLYINLET,COIL:COOLING:DX:SINGLESPEED,OFFICE_PRIVATE_0_Z6_COOLINGCOILDX,Inlet,1
 Non-Parent Node Connection,OFFICE_PRIVATE_0_Z6_COOLC-HEATCNODE,COIL:COOLING:DX:SINGLESPEED,OFFICE_PRIVATE_0_Z6_COOLINGCOILDX,Outlet,1
 Non-Parent Node Connection,STORAGE_0_Z7_SUPPLYINLET,COIL:COOLING:DX:SINGLESPEED,STORAGE_0_Z7_COOLINGCOILDX,Inlet,1
 Non-Parent Node Connection,STORAGE_0_Z7_COOLC-HEATCNODE,COIL:COOLING:DX:SINGLESPEED,STORAGE_0_Z7_COOLINGCOILDX,Outlet,1
 Non-Parent Node Connection,BREAK_ROOM_1_Z8_SUPPLYINLET,COIL:COOLING:DX:SINGLESPEED,BREAK_ROOM_1_Z8_COOLINGCOILDX,Inlet,1
 Non-Parent Node Connection,BREAK_ROOM_1_Z8_COOLC-HEATCNODE,COIL:COOLING:DX:SINGLESPEED,BREAK_ROOM_1_Z8_COOLINGCOILDX,Outlet,1
 Non-Parent Node Connection,MECHANICAL_1_Z9_SUPPLYINLET,COIL:COOLING:DX:SINGLESPEED,MECHANICAL_1_Z9_COOLINGCOILDX,Inlet,1
 Non-Parent Node Connection,MECHANICAL_1_Z9_COOLC-HEATCNODE,COIL:COOLING:DX:SINGLESPEED,MECHANICAL_1_Z9_COOLINGCOILDX,Outlet,1
 Non-Parent Node Connection,OFFICE_OPEN_1_Z10_SUPPLYINLET,COIL:COOLING:DX:SINGLESPEED,OFFICE_OPEN_1_Z10_COOLINGCOILDX,Inlet,1
 Non-Parent Node Connection,OFFICE_OPEN_1_Z10_COOLC-HEATCNODE,COIL:COOLING:DX:SINGLESPEED,OFFICE_OPEN_1_Z10_COOLINGCOILDX,Outlet,1
 Non-Parent Node Connection,STORAGE_1_Z11_SUPPLYINLET,COIL:COOLING:DX:SINGLESPEED,STORAGE_1_Z11_COOLINGCOILDX,Inlet,1
 Non-Parent Node Connection,STORAGE_1_Z11_COOLC-HEATCNODE,COIL:COOLING:DX:SINGLESPEED,STORAGE_1_Z11_COOLINGCOILDX,Outlet,1
 Non-Parent Node Connection,LOBBY_2_Z12_SUPPLYINLET,COIL:COOLING:DX:SINGLESPEED,LOBBY_2_Z12_COOLINGCOILDX,Inlet,1
 Non-Parent Node Connection,LOBBY_2_Z12_COOLC-HEATCNODE,COIL:COOLING:DX:SINGLESPEED,LOBBY_2_Z12_COOLINGCOILDX,Outlet,1
 Non-Parent Node Connection,BREAK_ROOM_2_Z13_SUPPLYINLET,COIL:COOLING:DX:SINGLESPEED,BREAK_ROOM_2_Z13_COOLINGCOILDX,Inlet,1
 Non-Parent Node Connection,BREAK_ROOM_2_Z13_COOLC-HEATCNODE,COIL:COOLING:DX:SINGLESPEED,BREAK_ROOM_2_Z13_COOLINGCOILDX,Outlet,1
 Non-Parent Node Connection,MECHANICAL_2_Z14_SUPPLYINLET,COIL:COOLING:DX:SINGLESPEED,MECHANICAL_2_Z14_COOLINGCOILDX,Inlet,1
 Non-Parent Node Connection,MECHANICAL_2_Z14_COOLC-HEATCNODE,COIL:COOLING:DX:SINGLESPEED,MECHANICAL_2_Z14_COOLINGCOILDX,Outlet,1
 Non-Parent Node Connection,OFFICE_OPEN_2_Z15_SUPPLYINLET,COIL:COOLING:DX:SINGLESPEED,OFFICE_OPEN_2_Z15_COOLINGCOILDX,Inlet,1
 Non-Parent Node Connection,OFFICE_OPEN_2_Z15_COOLC-HEATCNODE,COIL:COOLING:DX:SINGLESPEED,OFFICE_OPEN_2_Z15_COOLINGCOILDX,Outlet,1
 Non-Parent Node Connection,OFFICE_PRIVATE_2_Z16_SUPPLYINLET,COIL:COOLING:DX:SINGLESPEED,OFFICE_PRIVATE_2_Z16_COOLINGCOILDX,Inlet,1
 Non-Parent Node Connection,OFFICE_PRIVATE_2_Z16_COOLC-HEATCNODE,COIL:COOLING:DX:SINGLESPEED,OFFICE_PRIVATE_2_Z16_COOLINGCOILDX,Outlet,1
 Non-Parent Node Connection,STORAGE_2_Z17_SUPPLYINLET,COIL:COOLING:DX:SINGLESPEED,STORAGE_2_Z17_COOLINGCOILDX,Inlet,1
 Non-Parent Node Connection,STORAGE_2_Z17_COOLC-HEATCNODE,COIL:COOLING:DX:SINGLESPEED,STORAGE_2_Z17_COOLINGCOILDX,Outlet,1
 Non-Parent Node Connection,LOBBY_3_Z18_SUPPLYINLET,COIL:COOLING:DX:SINGLESPEED,LOBBY_3_Z18_COOLINGCOILDX,Inlet,1
 Non-Parent Node Connection,LOBBY_3_Z18_COOLC-HEATCNODE,COIL:COOLING:DX:SINGLESPEED,LOBBY_3_Z18_COOLINGCOILDX,Outlet,1
 Non-Parent Node Connection,CONFERENCE_3_Z19_SUPPLYINLET,COIL:COOLING:DX:SINGLESPEED,CONFERENCE_3_Z19_COOLINGCOILDX,Inlet,1
 Non-Parent Node Connection,CONFERENCE_3_Z19_COOLC-HEATCNODE,COIL:COOLING:DX:SINGLESPEED,CONFERENCE_3_Z19_COOLINGCOILDX,Outlet,1
 Non-Parent Node Connection,MECHANICAL_3_Z20_SUPPLYINLET,COIL:COOLING:DX:SINGLESPEED,MECHANICAL_3_Z20_COOLINGCOILDX,Inlet,1
 Non-Parent Node Connection,MECHANICAL_3_Z20_COOLC-HEATCNODE,COIL:COOLING:DX:SINGLESPEED,MECHANICAL_3_Z20_COOLINGCOILDX,Outlet,1
 Non-Parent Node Connection,STORAGE_3_Z21_SUPPLYINLET,COIL:COOLING:DX:SINGLESPEED,STORAGE_3_Z21_COOLINGCOILDX,Inlet,1
 Non-Parent Node Connection,STORAGE_3_Z21_COOLC-HEATCNODE,COIL:COOLING:DX:SINGLESPEED,STORAGE_3_Z21_COOLINGCOILDX,Outlet,1
 Non-Parent Node Connection,LOBBY_4_Z22_SUPPLYINLET,COIL:COOLING:DX:SINGLESPEED,LOBBY_4_Z22_COOLINGCOILDX,Inlet,1
 Non-Parent Node Connection,LOBBY_4_Z22_COOLC-HEATCNODE,COIL:COOLING:DX:SINGLESPEED,LOBBY_4_Z22_COOLINGCOILDX,Outlet,1
 Non-Parent Node Connection,CONFERENCE_4_Z23_SUPPLYINLET,COIL:COOLING:DX:SINGLESPEED,CONFERENCE_4_Z23_COOLINGCOILDX,Inlet,1
 Non-Parent Node Connection,CONFERENCE_4_Z23_COOLC-HEATCNODE,COIL:COOLING:DX:SINGLESPEED,CONFERENCE_4_Z23_COOLINGCOILDX,Outlet,1
 Non-Parent Node Connection,BREAK_ROOM_4_Z24_SUPPLYINLET,COIL:COOLING:DX:SINGLESPEED,BREAK_ROOM_4_Z24_COOLINGCOILDX,Inlet,1
 Non-Parent Node Connection,BREAK_ROOM_4_Z24_COOLC-HEATCNODE,COIL:COOLING:DX:SINGLESPEED,BREAK_ROOM_4_Z24_COOLINGCOILDX,Outlet,1
 Non-Parent Node Connection,MECHANICAL_4_Z25_SUPPLYINLET,COIL:COOLING:DX:SINGLESPEED,MECHANICAL_4_Z25_COOLINGCOILDX,Inlet,1
 Non-Parent Node Connection,MECHANICAL_4_Z25_COOLC-HEATCNODE,COIL:COOLING:DX:SINGLESPEED,MECHANICAL_4_Z25_COOLINGCOILDX,Outlet,1
 Non-Parent Node Connection,OFFICE_PRIVATE_4_Z26_SUPPLYINLET,COIL:COOLING:DX:SINGLESPEED,OFFICE_PRIVATE_4_Z26_COOLINGCOILDX,Inlet,1
 Non-Parent Node Connection,OFFICE_PRIVATE_4_Z26_COOLC-HEATCNODE,COIL:COOLING:DX:SINGLESPEED,OFFICE_PRIVATE_4_Z26_COOLINGCOILDX,Outlet,1
 Non-Parent Node Connection,STORAGE_4_Z27_SUPPLYINLET,COIL:COOLING:DX:SINGLESPEED,STORAGE_4_Z27_COOLINGCOILDX,Inlet,1
 Non-Parent Node Connection,STORAGE_4_Z27_COOLC-HEATCNODE,COIL:COOLING:DX:SINGLESPEED,STORAGE_4_Z27_COOLINGCOILDX,Outlet,1
