Program Version,EnergyPlus, Version 24.2.0-94a887817b, YMD=2025.11.02 19:21
! <Version>, Version ID
 Version, 24.2.0
! <Timesteps per Hour>, #TimeSteps, Minutes per TimeStep {minutes}
 Timesteps per Hour,  4, 15
! <System Convergence Limits>, Minimum System TimeStep {minutes}, Max HVAC Iterations, Minimum Plant Iterations, Maximum Plant Iterations
 System Convergence Limits, 1, 20, 2, 8
! <Simulation Control>, Do Zone Sizing, Do System Sizing, Do Plant Sizing, Do Design Days, Do Weather Simulation, Do HVAC Sizing Simulation
 Simulation Control, No, No, No, No, Yes, No
! <Performance Precision Tradeoffs>, Use Coil Direct Simulation, Zone Radiant Exchange Algorithm, Override Mode, Number of Timestep In Hour, Force Euler Method, Minimum Number of Warmup Days, Force Suppress All Begin Environment Resets, Minimum System Timestep, MaxZoneTempDiff, MaxAllowedDelTemp
 Performance Precision Tradeoffs, No, ScriptF, Normal, 4, No, 1, No, 1.0, 0.300, 2.0000E-003
! <Output Reporting Tolerances>, Tolerance for Time Heating Setpoint Not Met, Tolerance for Zone Cooling Setpoint Not Met Time
 Output Reporting Tolerances, 0.200, 0.200, 
! <Site:GroundTemperature:BuildingSurface>,Jan{C},Feb{C},Mar{C},Apr{C},May{C},Jun{C},Jul{C},Aug{C},Sep{C},Oct{C},Nov{C},Dec{C}
 Site:GroundTemperature:BuildingSurface,  13.00,  12.00,  11.00,  10.00,  11.00,  13.00,  15.00,  16.00,  16.00,  15.00,  14.00,  13.00
! <Site:GroundTemperature:FCfactorMethod>,Jan{C},Feb{C},Mar{C},Apr{C},May{C},Jun{C},Jul{C},Aug{C},Sep{C},Oct{C},Nov{C},Dec{C}
 Site:GroundTemperature:FCfactorMethod,  -1.89,  -3.06,  -0.99,   2.23,  10.68,  17.20,  21.60,  22.94,  20.66,  15.60,   8.83,   2.56
! <Site:GroundTemperature:Shallow>,Jan{C},Feb{C},Mar{C},Apr{C},May{C},Jun{C},Jul{C},Aug{C},Sep{C},Oct{C},Nov{C},Dec{C}
 Site:GroundTemperature:Shallow,  11.00,  10.00,   9.00,   8.00,   9.00,  11.00,  13.00,  14.00,  14.00,  13.00,  12.00,  11.00
! <Site:GroundTemperature:Deep>,Jan{C},Feb{C},Mar{C},Apr{C},May{C},Jun{C},Jul{C},Aug{C},Sep{C},Oct{C},Nov{C},Dec{C}
 Site:GroundTemperature:Deep,   9.00,   8.00,   7.00,   6.00,   7.00,   9.00,  11.00,  12.00,  12.00,  11.00,  10.00,   9.00
! <Site:GroundReflectance>,Jan{dimensionless},Feb{dimensionless},Mar{dimensionless},Apr{dimensionless},May{dimensionless},Jun{dimensionless},Jul{dimensionless},Aug{dimensionless},Sep{dimensionless},Oct{dimensionless},Nov{dimensionless},Dec{dimensionless}
 Site:GroundReflectance,  0.20,  0.20,  0.20,  0.20,  0.20,  0.20,  0.20,  0.20,  0.20,  0.20,  0.20,  0.20
! <Site:GroundReflectance:SnowModifier>, Normal, Daylighting {dimensionless}
 Site:GroundReflectance:SnowModifier,   1.000,   1.000
! <Site:GroundReflectance:Snow>,Jan{dimensionless},Feb{dimensionless},Mar{dimensionless},Apr{dimensionless},May{dimensionless},Jun{dimensionless},Jul{dimensionless},Aug{dimensionless},Sep{dimensionless},Oct{dimensionless},Nov{dimensionless},Dec{dimensionless}
 Site:GroundReflectance:Snow,  0.20,  0.20,  0.20,  0.20,  0.20,  0.20,  0.20,  0.20,  0.20,  0.20,  0.20,  0.20
! <Site:GroundReflectance:Snow:Daylighting>,Jan{dimensionless},Feb{dimensionless},Mar{dimensionless},Apr{dimensionless},May{dimensionless},Jun{dimensionless},Jul{dimensionless},Aug{dimensionless},Sep{dimensionless},Oct{dimensionless},Nov{dimensionless},Dec{dimensionless}
 Site:GroundReflectance:Snow:Daylighting,  0.20,  0.20,  0.20,  0.20,  0.20,  0.20,  0.20,  0.20,  0.20,  0.20,  0.20,  0.20
! <Environment:Weather Station>,Wind Sensor Height Above Ground {m},Wind Speed Profile Exponent {},Wind Speed Profile Boundary Layer Thickness {m},Air Temperature Sensor Height Above Ground {m},Wind Speed Modifier Coefficient-Internal,Temperature Modifier Coefficient-Internal
Environment:Weather Station,10.000,0.140,270.000,1.500,1.586,9.750E-003
! <Site:Location>, Location Name, Latitude {N+/S- Deg}, Longitude {E+/W- Deg},  Time Zone Number {GMT+/-}, Elevation {m},  Standard Pressure at Elevation {Pa}, Standard RhoAir at Elevation
Site:Location,Chicago Ohare Intl Ap IL USA TMY3 WMO#=725300,41.98,-87.92,-6.00,201.00,98934,1.1759
! <Site Water Mains Temperature Information>,Calculation Method{},Water Mains Temperature Schedule Name{},Annual Average Outdoor Air Temperature{C},Maximum Difference In Monthly Average Outdoor Air Temperatures{deltaC},Fixed Default Water Mains Temperature{C}
Site Water Mains Temperature Information,FixedDefault,NA,NA,NA,10.0
! <Building Information>, Building Name,North Axis {deg},Terrain,  Loads Convergence Tolerance Value,Temperature Convergence Tolerance Value,  Solar Distribution,Maximum Number of Warmup Days,Minimum Number of Warmup Days
 Building Information,Professional Building,0.000,Suburbs,4.00000E-002,0.20000,FullInteriorAndExterior,15,6
! <Inside Convection Algorithm>, Algorithm {Simple | TARP | CeilingDiffuser | AdaptiveConvectionAlgorithm}
Inside Convection Algorithm,TARP
! <Outside Convection Algorithm>, Algorithm {SimpleCombined | TARP | MoWitt | DOE-2 | AdaptiveConvectionAlgorithm}
Outside Convection Algorithm,DOE-2
! <Sky Radiance Distribution>, Value {Anisotropic}
Sky Radiance Distribution,Anisotropic
! <Zone Air Solution Algorithm>, Algorithm {ThirdOrderBackwardDifference | AnalyticalSolution | EulerMethod}, Space Heat Balance Sizing, Space Heat Balance Simulation
 Zone Air Solution Algorithm, ThirdOrderBackwardDifference, No, No
! <Zone Air Carbon Dioxide Balance Simulation>, Simulation {Yes/No}, Carbon Dioxide Concentration
 Zone Air Carbon Dioxide Balance Simulation, No,N/A
! <Zone Air Generic Contaminant Balance Simulation>, Simulation {Yes/No}, Generic Contaminant Concentration
 Zone Air Generic Contaminant Balance Simulation, No,N/A
! <Zone Air Mass Flow Balance Simulation>, Enforce Mass Balance, Adjust Zone Mixing and Return {AdjustMixingOnly | AdjustReturnOnly | AdjustMixingThenReturn | AdjustReturnThenMixing | None}, Adjust Zone Infiltration {AddInfiltration | AdjustInfiltration | None}, Infiltration Zones {MixingSourceZonesOnly | AllZones}
 Zone Air Mass Flow Balance Simulation, No,N/A,N/A,N/A
! <HVACSystemRootFindingAlgorithm>, Value {RegulaFalsi | Bisection | BisectionThenRegulaFalsi | RegulaFalsiThenBisection}
 HVACSystemRootFindingAlgorithm, RegulaFalsi
! <Environment:Site Atmospheric Variation>,Wind Speed Profile Exponent {},Wind Speed Profile Boundary Layer Thickness {m},Air Temperature Gradient Coefficient {K/m}
Environment:Site Atmospheric Variation,0.220,370.000,6.500000E-003
! <Shadowing/Sun Position Calculations Annual Simulations>, Shading Calculation Method, Shading Calculation Update Frequency Method, Shading Calculation Update Frequency {days}, Maximum Figures in Shadow Overlap Calculations {}, Polygon Clipping Algorithm, Pixel Counting Resolution, Sky Diffuse Modeling Algorithm, Output External Shading Calculation Results, Disable Self-Shading Within Shading Zone Groups, Disable Self-Shading From Shading Zone Groups to Other Zones
Shadowing/Sun Position Calculations Annual Simulations,PolygonClipping,Periodic,20,15000,SutherlandHodgman,512,SimpleSkyDiffuseModeling,No,No,No
! <Surface Geometry>,Starting Corner,Vertex Input Direction,Coordinate System,Daylight Reference Point Coordinate System,Rectangular (Simple) Surface Coordinate System
 Surface Geometry,UpperLeftCorner,Counterclockwise,RelativeCoordinateSystem,RelativeCoordinateSystem,RelativeToZoneOrigin
! <Surface Heat Transfer Algorithm>, Value {CTF - ConductionTransferFunction | EMPD - MoisturePenetrationDepthConductionTransferFunction | CondFD - ConductionFiniteDifference | HAMT - CombinedHeatAndMoistureFiniteElement} - Description,Inside Surface Max Temperature Limit{C}, Surface Convection Coefficient Lower Limit {W/m2-K}, Surface Convection Coefficient Upper Limit {W/m2-K}
Surface Heat Transfer Algorithm, CTF - ConductionTransferFunction,200,0.10,1000.0
! <Shading Summary>, Number of Fixed Detached Shades, Number of Building Detached Shades, Number of Attached Shades
 Shading Summary,0,0,0
! <Zone Summary>, Number of Zones, Number of Zone Surfaces, Number of SubSurfaces
 Zone Summary,15,165,60
! <Zone Information>,Zone Name,North Axis {deg},Origin X-Coordinate {m},Origin Y-Coordinate {m},Origin Z-Coordinate {m},Centroid X-Coordinate {m},Centroid Y-Coordinate {m},Centroid Z-Coordinate {m},Type,Zone Multiplier,Zone List Multiplier,Minimum X {m},Maximum X {m},Minimum Y {m},Maximum Y {m},Minimum Z {m},Maximum Z {m},Ceiling Height {m},Volume {m3},Zone Inside Convection Algorithm {Simple-Detailed-CeilingDiffuser-TrombeWall},Zone Outside Convection Algorithm {Simple-Detailed-Tarp-MoWitt-DOE-2-BLAST}, Floor Area {m2},Exterior Gross Wall Area {m2},Exterior Net Wall Area {m2},Exterior Window Area {m2}, Number of Surfaces, Number of SubSurfaces, Number of Shading SubSurfaces,  Part of Total Building Area
 Zone Information, LOBBY_0,0.0,0.00,0.00,0.00,-32.55,32.91,1.50,1,1,1,-37.41,-27.69,24.39,41.44,0.00,3.00,3.00,488.87,TARP,DOE-2,162.96,159.37,111.40,47.96,6,4,0,Yes
 Zone Information, CONFERENCE_0,0.0,0.00,0.00,0.00,-25.98,29.25,1.50,1,1,1,-29.02,-22.95,23.56,34.93,0.00,3.00,3.00,201.72,TARP,DOE-2,67.24,103.42,72.30,31.13,6,4,0,Yes
 Zone Information, MECHANICAL_0,0.0,0.00,0.00,0.00,-9.46,39.61,1.50,1,1,1,-13.37,-5.55,35.51,43.71,0.00,3.00,3.00,187.47,TARP,DOE-2,62.49,94.89,66.33,28.56,6,4,0,Yes
 Zone Information, OFFICE_PRIVATE_0,0.0,0.00,0.00,0.00,-33.68,28.24,1.50,1,1,1,-36.15,-31.21,24.97,31.51,0.00,3.00,3.00,93.45,TARP,DOE-2,31.15,67.66,47.30,20.36,6,4,0,Yes
 Zone Information, LOBBY_1,0.0,0.00,0.00,0.00,-25.03,52.49,4.50,1,1,1,-29.76,-20.30,43.32,61.67,3.00,6.00,3.00,512.48,TARP,DOE-2,170.83,165.66,115.81,49.86,6,4,0,Yes
 Zone Information, BREAK_ROOM_1,0.0,0.00,0.00,0.00,-8.25,10.42,4.50,1,1,1,-11.28,-5.22,5.73,15.10,3.00,6.00,3.00,165.93,TARP,DOE-2,55.31,91.43,63.91,27.52,6,4,0,Yes
 Zone Information, OFFICE_PRIVATE_1,0.0,0.00,0.00,0.00,-16.75,48.47,4.50,1,1,1,-19.81,-13.68,45.28,51.66,3.00,6.00,3.00,113.65,TARP,DOE-2,37.88,73.88,51.64,22.23,6,4,0,Yes
 Zone Information, BREAK_ROOM_2,0.0,0.00,0.00,0.00,-14.45,51.48,7.50,1,1,1,-18.05,-10.84,46.59,56.36,6.00,9.00,3.00,206.22,TARP,DOE-2,68.74,100.67,70.37,30.30,6,4,0,Yes
 Zone Information, MECHANICAL_2,0.0,0.00,0.00,0.00,-12.61,32.10,7.50,1,1,1,-17.19,-8.02,26.63,37.57,6.00,9.00,3.00,295.21,TARP,DOE-2,98.40,119.51,83.54,35.97,6,4,0,Yes
 Zone Information, LOBBY_3,0.0,0.00,0.00,0.00,-10.87,42.55,10.50,1,1,1,-15.98,-5.75,36.56,48.54,9.00,12.00,3.00,360.74,TARP,DOE-2,120.25,132.01,92.28,39.73,6,4,0,Yes
 Zone Information, OFFICE_OPEN_3,0.0,0.00,0.00,0.00,-13.36,38.30,10.50,1,1,1,-18.56,-8.16,31.07,45.54,9.00,12.00,3.00,444.15,TARP,DOE-2,148.05,148.04,103.48,44.55,6,4,0,Yes
 Zone Information, OFFICE_PRIVATE_3,0.0,0.00,0.00,0.00,3.68,40.43,10.50,1,1,1,0.93,6.43,36.48,44.38,9.00,12.00,3.00,126.27,TARP,DOE-2,42.09,79.17,55.34,23.83,6,4,0,Yes
 Zone Information, STORAGE_3,0.0,0.00,0.00,0.00,-5.03,47.10,10.50,1,1,1,-6.55,-3.52,44.22,49.98,9.00,12.00,3.00,49.75,TARP,DOE-2,16.58,51.54,36.03,15.51,6,4,0,Yes
 Zone Information, MECHANICAL_4,0.0,0.00,0.00,0.00,-1.58,29.59,13.50,1,1,1,-4.70,1.54,25.64,33.54,12.00,15.00,3.00,143.71,TARP,DOE-2,47.90,83.65,58.48,25.18,6,4,0,Yes
 Zone Information, STORAGE_4,0.0,0.00,0.00,0.00,-11.61,28.60,13.50,1,1,1,-14.16,-9.05,25.61,31.60,12.00,15.00,3.00,88.51,TARP,DOE-2,29.50,65.39,45.71,19.68,6,4,0,Yes
! <Zone Internal Gains Nominal>,Zone Name, Floor Area {m2},# Occupants,Area per Occupant {m2/person},Occupant per Area {person/m2},Interior Lighting {W/m2},Electric Load {W/m2},Gas Load {W/m2},Other Load {W/m2},Hot Water Eq {W/m2},Steam Equipment {W/m2},Sum Loads per Area {W/m2},Outdoor Controlled Baseboard Heat
 Zone Internal Gains Nominal, LOBBY_0,162.96,8.0,20.370,4.909E-002,9.200,2.600,0.000,0.000,0.000,0.000,11.800,No
 Zone Internal Gains Nominal, CONFERENCE_0,67.24,13.0,5.172,0.193,7.700,6.500,0.000,0.000,0.000,0.000,14.200,No
 Zone Internal Gains Nominal, MECHANICAL_0,62.49,1.0,62.490,1.600E-002,3.900,0.000,0.000,0.000,0.000,0.000,3.900,No
 Zone Internal Gains Nominal, OFFICE_PRIVATE_0,31.15,1.0,31.151,3.210E-002,7.700,6.500,0.000,0.000,0.000,0.000,14.200,No
 Zone Internal Gains Nominal, LOBBY_1,170.83,8.0,21.353,4.683E-002,9.200,2.600,0.000,0.000,0.000,0.000,11.800,No
 Zone Internal Gains Nominal, BREAK_ROOM_1,55.31,5.0,11.062,9.040E-002,5.800,12.000,0.000,0.000,0.000,0.000,17.800,No
 Zone Internal Gains Nominal, OFFICE_PRIVATE_1,37.88,1.0,37.884,2.640E-002,7.700,6.500,0.000,0.000,0.000,0.000,14.200,No
 Zone Internal Gains Nominal, BREAK_ROOM_2,68.74,6.0,11.457,8.729E-002,5.800,12.000,0.000,0.000,0.000,0.000,17.800,No
 Zone Internal Gains Nominal, MECHANICAL_2,98.40,1.0,98.402,1.016E-002,3.900,0.000,0.000,0.000,0.000,0.000,3.900,No
 Zone Internal Gains Nominal, LOBBY_3,120.25,6.0,20.041,4.990E-002,9.200,2.600,0.000,0.000,0.000,0.000,11.800,No
 Zone Internal Gains Nominal, OFFICE_OPEN_3,148.05,7.0,21.150,4.728E-002,7.700,6.500,0.000,0.000,0.000,0.000,14.200,No
 Zone Internal Gains Nominal, OFFICE_PRIVATE_3,42.09,2.0,21.044,4.752E-002,7.700,6.500,0.000,0.000,0.000,0.000,14.200,No
 Zone Internal Gains Nominal, STORAGE_3,16.58,1.0,16.584,6.030E-002,3.900,0.900,0.000,0.000,0.000,0.000,4.800,No
 Zone Internal Gains Nominal, MECHANICAL_4,47.90,1.0,47.903,2.088E-002,3.900,0.000,0.000,0.000,0.000,0.000,3.900,No
 Zone Internal Gains Nominal, STORAGE_4,29.50,1.0,29.502,3.390E-002,3.900,0.900,0.000,0.000,0.000,0.000,4.800,No
! <People Internal Gains Nominal>,Name,Schedule Name,Zone Name,Zone Floor Area {m2},# Zone Occupants,Number of People {},People/Floor Area {person/m2},Floor Area per person {m2/person},Fraction Radiant,Fraction Convected,Sensible Fraction Calculation,Activity level,ASHRAE 55 Warnings,Carbon Dioxide Generation Rate,Minimum Number of People for All Day Types,Maximum Number of People for All Day Types,Minimum Number of People for Weekdays, Maximum Number of People for Weekdays, Minimum Number of People for Weekends/Holidays, Maximum Number of People for Weekends /Holidays,Minimum Number of People for Summer Design Days, Maximum Number of People for Summer Design Days,Minimum Number of People for Winter Design Days, Maximum Number of People for Winter Design Days
 People Internal Gains Nominal, LOBBY_0_PEOPLE,LOBBY_OCCUPANCY,LOBBY_0,162.96,8.0,8.0,4.909E-002,20.370,0.300,0.700,0.100,LOBBY_ACTIVITY,No,3.8200E-008,1.6,1.6,1.6,1.6,1.6,1.6,1.6,1.6,1.6,1.6,
 People Internal Gains Nominal, CONFERENCE_0_PEOPLE,CONFERENCE_OCCUPANCY,CONFERENCE_0,67.24,13.0,13.0,0.193,5.172,0.300,0.700,0.100,CONFERENCE_ACTIVITY,No,3.8200E-008,0.0,13.0,0.0,13.0,0.0,1.3,0.0,0.0,0.0,0.0,
 People Internal Gains Nominal, MECHANICAL_0_PEOPLE,MECHANICAL_OCCUPANCY,MECHANICAL_0,62.49,1.0,1.0,1.600E-002,62.490,0.300,0.700,0.100,MECHANICAL_ACTIVITY,No,3.8200E-008,0.2,0.2,0.2,0.2,0.2,0.2,0.2,0.2,0.2,0.2,
 People Internal Gains Nominal, OFFICE_PRIVATE_0_PEOPLE,OFFICE_OPEN_OCCUPANCY,OFFICE_PRIVATE_0,31.15,1.0,1.0,3.210E-002,31.151,0.300,0.700,0.100,OFFICE_OPEN_ACTIVITY,No,3.8200E-008,0.0,1.0,0.0,1.0,0.0,0.1,0.0,0.0,0.0,0.0,
 People Internal Gains Nominal, LOBBY_1_PEOPLE,LOBBY_OCCUPANCY,LOBBY_1,170.83,8.0,8.0,4.683E-002,21.353,0.300,0.700,0.100,LOBBY_ACTIVITY,No,3.8200E-008,1.6,1.6,1.6,1.6,1.6,1.6,1.6,1.6,1.6,1.6,
 People Internal Gains Nominal, BREAK_ROOM_1_PEOPLE,BREAK_ROOM_OCCUPANCY,BREAK_ROOM_1,55.31,5.0,5.0,9.040E-002,11.062,0.300,0.700,0.100,BREAK_ROOM_ACTIVITY,No,3.8200E-008,1.0,1.0,1.0,1.0,1.0,1.0,1.0,1.0,1.0,1.0,
 People Internal Gains Nominal, OFFICE_PRIVATE_1_PEOPLE,OFFICE_OPEN_OCCUPANCY,OFFICE_PRIVATE_1,37.88,1.0,1.0,2.640E-002,37.884,0.300,0.700,0.100,OFFICE_OPEN_ACTIVITY,No,3.8200E-008,0.0,1.0,0.0,1.0,0.0,0.1,0.0,0.0,0.0,0.0,
 People Internal Gains Nominal, BREAK_ROOM_2_PEOPLE,BREAK_ROOM_OCCUPANCY,BREAK_ROOM_2,68.74,6.0,6.0,8.729E-002,11.457,0.300,0.700,0.100,BREAK_ROOM_ACTIVITY,No,3.8200E-008,1.2,1.2,1.2,1.2,1.2,1.2,1.2,1.2,1.2,1.2,
 People Internal Gains Nominal, MECHANICAL_2_PEOPLE,MECHANICAL_OCCUPANCY,MECHANICAL_2,98.40,1.0,1.0,1.016E-002,98.402,0.300,0.700,0.100,MECHANICAL_ACTIVITY,No,3.8200E-008,0.2,0.2,0.2,0.2,0.2,0.2,0.2,0.2,0.2,0.2,
 People Internal Gains Nominal, LOBBY_3_PEOPLE,LOBBY_OCCUPANCY,LOBBY_3,120.25,6.0,6.0,4.990E-002,20.041,0.300,0.700,0.100,LOBBY_ACTIVITY,No,3.8200E-008,1.2,1.2,1.2,1.2,1.2,1.2,1.2,1.2,1.2,1.2,
 People Internal Gains Nominal, OFFICE_OPEN_3_PEOPLE,OFFICE_OPEN_OCCUPANCY,OFFICE_OPEN_3,148.05,7.0,7.0,4.728E-002,21.150,0.300,0.700,0.100,OFFICE_OPEN_ACTIVITY,No,3.8200E-008,0.0,7.0,0.0,7.0,0.0,0.7,0.0,0.0,0.0,0.0,
 People Internal Gains Nominal, OFFICE_PRIVATE_3_PEOPLE,OFFICE_OPEN_OCCUPANCY,OFFICE_PRIVATE_3,42.09,2.0,2.0,4.752E-002,21.044,0.300,0.700,0.100,OFFICE_OPEN_ACTIVITY,No,3.8200E-008,0.0,2.0,0.0,2.0,0.0,0.2,0.0,0.0,0.0,0.0,
 People Internal Gains Nominal, STORAGE_3_PEOPLE,STORAGE_OCCUPANCY,STORAGE_3,16.58,1.0,1.0,6.030E-002,16.584,0.300,0.700,0.100,STORAGE_ACTIVITY,No,3.8200E-008,0.2,0.2,0.2,0.2,0.2,0.2,0.2,0.2,0.2,0.2,
 People Internal Gains Nominal, MECHANICAL_4_PEOPLE,MECHANICAL_OCCUPANCY,MECHANICAL_4,47.90,1.0,1.0,2.088E-002,47.903,0.300,0.700,0.100,MECHANICAL_ACTIVITY,No,3.8200E-008,0.2,0.2,0.2,0.2,0.2,0.2,0.2,0.2,0.2,0.2,
 People Internal Gains Nominal, STORAGE_4_PEOPLE,STORAGE_OCCUPANCY,STORAGE_4,29.50,1.0,1.0,3.390E-002,29.502,0.300,0.700,0.100,STORAGE_ACTIVITY,No,3.8200E-008,0.2,0.2,0.2,0.2,0.2,0.2,0.2,0.2,0.2,0.2,
! <Lights Internal Gains Nominal>,Name,Schedule Name,Zone Name,Zone Floor Area {m2},# Zone Occupants,Lighting Level {W},Lights/Floor Area {W/m2},Lights per person {W/person},Fraction Return Air,Fraction Radiant,Fraction Short Wave,Fraction Convected,Fraction Replaceable,End-Use, Minimum Lighting Level for All Day Types {W},Maximum Lighting Level for All Day Types {W},Minimum Lighting Level for Weekdays {W}, Maximum Lighting Level for Weekdays {W},Minimum Lighting Level for Weekends/Holidays {W}, Maximum Lighting Level for Weekends /Holidays {W},Minimum Lighting Level for Summer Design Days {W}, Maximum Lighting Level for Summer Design Days {W},Minimum Lighting Level for Winter Design Days {W}, Maximum Lighting Level for Winter Design Days {W}
 Lights Internal Gains Nominal, LOBBY_0_LIGHTS,LOBBY_LIGHTING,LOBBY_0,162.96,8.0,1499.216,9.200,187.402,0.000,0.300,0.200,0.500,1.000,General,0.000,1499.216,149.922,1499.2,0.000,299.843,0.000,0.000,0.000,0.000
 Lights Internal Gains Nominal, CONFERENCE_0_LIGHTS,CONFERENCE_LIGHTING,CONFERENCE_0,67.24,13.0,517.745,7.700,39.827,0.000,0.300,0.200,0.500,1.000,General,0.000,517.745,51.775,517.7,0.000,103.549,0.000,0.000,0.000,0.000
 Lights Internal Gains Nominal, MECHANICAL_0_LIGHTS,MECHANICAL_LIGHTING,MECHANICAL_0,62.49,1.0,243.711,3.900,243.711,0.000,0.300,0.200,0.500,1.000,General,0.000,243.711,24.371,243.7,0.000,48.742,0.000,0.000,0.000,0.000
 Lights Internal Gains Nominal, OFFICE_PRIVATE_0_LIGHTS,OFFICE_OPEN_LIGHTING,OFFICE_PRIVATE_0,31.15,1.0,239.866,7.700,239.866,0.000,0.300,0.200,0.500,1.000,General,0.000,239.866,23.987,239.9,0.000,47.973,0.000,0.000,0.000,0.000
 Lights Internal Gains Nominal, LOBBY_1_LIGHTS,LOBBY_LIGHTING,LOBBY_1,170.83,8.0,1571.604,9.200,196.451,0.000,0.300,0.200,0.500,1.000,General,0.000,1571.604,157.160,1571.6,0.000,314.321,0.000,0.000,0.000,0.000
 Lights Internal Gains Nominal, BREAK_ROOM_1_LIGHTS,BREAK_ROOM_LIGHTING,BREAK_ROOM_1,55.31,5.0,320.800,5.800,64.160,0.000,0.300,0.200,0.500,1.000,General,0.000,320.800,32.080,320.8,0.000,64.160,0.000,0.000,0.000,0.000
 Lights Internal Gains Nominal, OFFICE_PRIVATE_1_LIGHTS,OFFICE_OPEN_LIGHTING,OFFICE_PRIVATE_1,37.88,1.0,291.705,7.700,291.705,0.000,0.300,0.200,0.500,1.000,General,0.000,291.705,29.170,291.7,0.000,58.341,0.000,0.000,0.000,0.000
 Lights Internal Gains Nominal, BREAK_ROOM_2_LIGHTS,BREAK_ROOM_LIGHTING,BREAK_ROOM_2,68.74,6.0,398.691,5.800,66.448,0.000,0.300,0.200,0.500,1.000,General,0.000,398.691,39.869,398.7,0.000,79.738,0.000,0.000,0.000,0.000
 Lights Internal Gains Nominal, MECHANICAL_2_LIGHTS,MECHANICAL_LIGHTING,MECHANICAL_2,98.40,1.0,383.769,3.900,383.769,0.000,0.300,0.200,0.500,1.000,General,0.000,383.769,38.377,383.8,0.000,76.754,0.000,0.000,0.000,0.000
 Lights Internal Gains Nominal, LOBBY_3_LIGHTS,LOBBY_LIGHTING,LOBBY_3,120.25,6.0,1106.279,9.200,184.380,0.000,0.300,0.200,0.500,1.000,General,0.000,1106.279,110.628,1106.3,0.000,221.256,0.000,0.000,0.000,0.000
 Lights Internal Gains Nominal, OFFICE_OPEN_3_LIGHTS,OFFICE_OPEN_LIGHTING,OFFICE_OPEN_3,148.05,7.0,1139.972,7.700,162.853,0.000,0.300,0.200,0.500,1.000,General,0.000,1139.972,113.997,1140.0,0.000,227.994,0.000,0.000,0.000,0.000
 Lights Internal Gains Nominal, OFFICE_PRIVATE_3_LIGHTS,OFFICE_OPEN_LIGHTING,OFFICE_PRIVATE_3,42.09,2.0,324.083,7.700,162.042,0.000,0.300,0.200,0.500,1.000,General,0.000,324.083,32.408,324.1,0.000,64.817,0.000,0.000,0.000,0.000
 Lights Internal Gains Nominal, STORAGE_3_LIGHTS,STORAGE_LIGHTING,STORAGE_3,16.58,1.0,64.677,3.900,64.677,0.000,0.300,0.200,0.500,1.000,General,0.000,64.677,6.468,64.7,0.000,12.935,0.000,0.000,0.000,0.000
 Lights Internal Gains Nominal, MECHANICAL_4_LIGHTS,MECHANICAL_LIGHTING,MECHANICAL_4,47.90,1.0,186.823,3.900,186.823,0.000,0.300,0.200,0.500,1.000,General,0.000,186.823,18.682,186.8,0.000,37.365,0.000,0.000,0.000,0.000
 Lights Internal Gains Nominal, STORAGE_4_LIGHTS,STORAGE_LIGHTING,STORAGE_4,29.50,1.0,115.059,3.900,115.059,0.000,0.300,0.200,0.500,1.000,General,0.000,115.059,11.506,115.1,0.000,23.012,0.000,0.000,0.000,0.000
! <ElectricEquipment Internal Gains Nominal>,Name,Schedule Name,Zone Name,Zone Floor Area {m2},# Zone Occupants,Equipment Level {W},Equipment/Floor Area {W/m2},Equipment per person {W/person},Fraction Latent,Fraction Radiant,Fraction Lost,Fraction Convected,End-Use SubCategory,Minimum Equipment Level for All Day Types {W},Maximum Equipment Level for All Day Types {W},Minimum Equipment Level for Weekdays {W}, Maximum Equipment Level for Weekdays {W},Minimum Equipment Level for Weekends/Holidays {W}, Maximum Equipment Level for Weekends /Holidays {W},Minimum Equipment Level for Summer Design Days {W}, Maximum Equipment Level for Summer Design Days {W},Minimum Equipment Level for Winter Design Days {W}, Maximum Equipment Level for Winter Design Days {W}
 ElectricEquipment Internal Gains Nominal, LOBBY_0_EQUIPMENT,LOBBY_EQUIPMENT,LOBBY_0,162.96,8.0,423.691,2.600,52.961,0.100,0.200,0.000,0.700,General,0.000,338.953,127.107,338.953,0.000,127.107,0.000,0.000,0.000,0.000
 ElectricEquipment Internal Gains Nominal, CONFERENCE_0_EQUIPMENT,CONFERENCE_EQUIPMENT,CONFERENCE_0,67.24,13.0,437.058,6.500,33.620,0.100,0.200,0.000,0.700,General,0.000,349.646,131.117,349.646,0.000,131.117,0.000,0.000,0.000,0.000
 ElectricEquipment Internal Gains Nominal, MECHANICAL_0_EQUIPMENT,MECHANICAL_EQUIPMENT,MECHANICAL_0,62.49,1.0,0.000,0.000,0.000,0.100,0.200,0.000,0.700,General,0.000,0.000,0.000,0.000,0.000,0.000,0.000,0.000,0.000,0.000
 ElectricEquipment Internal Gains Nominal, OFFICE_PRIVATE_0_EQUIPMENT,OFFICE_OPEN_EQUIPMENT,OFFICE_PRIVATE_0,31.15,1.0,202.484,6.500,202.484,0.100,0.200,0.000,0.700,General,0.000,161.987,60.745,161.987,0.000,60.745,0.000,0.000,0.000,0.000
 ElectricEquipment Internal Gains Nominal, LOBBY_1_EQUIPMENT,LOBBY_EQUIPMENT,LOBBY_1,170.83,8.0,444.149,2.600,55.519,0.100,0.200,0.000,0.700,General,0.000,355.319,133.245,355.319,0.000,133.245,0.000,0.000,0.000,0.000
 ElectricEquipment Internal Gains Nominal, BREAK_ROOM_1_EQUIPMENT,BREAK_ROOM_EQUIPMENT,BREAK_ROOM_1,55.31,5.0,663.725,12.000,132.745,0.100,0.200,0.000,0.700,General,0.000,530.980,199.117,530.980,0.000,199.117,0.000,0.000,0.000,0.000
 ElectricEquipment Internal Gains Nominal, OFFICE_PRIVATE_1_EQUIPMENT,OFFICE_OPEN_EQUIPMENT,OFFICE_PRIVATE_1,37.88,1.0,246.244,6.500,246.244,0.100,0.200,0.000,0.700,General,0.000,196.995,73.873,196.995,0.000,73.873,0.000,0.000,0.000,0.000
 ElectricEquipment Internal Gains Nominal, BREAK_ROOM_2_EQUIPMENT,BREAK_ROOM_EQUIPMENT,BREAK_ROOM_2,68.74,6.0,824.877,12.000,137.480,0.100,0.200,0.000,0.700,General,0.000,659.902,247.463,659.902,0.000,247.463,0.000,0.000,0.000,0.000
 ElectricEquipment Internal Gains Nominal, MECHANICAL_2_EQUIPMENT,MECHANICAL_EQUIPMENT,MECHANICAL_2,98.40,1.0,0.000,0.000,0.000,0.100,0.200,0.000,0.700,General,0.000,0.000,0.000,0.000,0.000,0.000,0.000,0.000,0.000,0.000
 ElectricEquipment Internal Gains Nominal, LOBBY_3_EQUIPMENT,LOBBY_EQUIPMENT,LOBBY_3,120.25,6.0,312.644,2.600,52.107,0.100,0.200,0.000,0.700,General,0.000,250.115,93.793,250.115,0.000,93.793,0.000,0.000,0.000,0.000
 ElectricEquipment Internal Gains Nominal, OFFICE_OPEN_3_EQUIPMENT,OFFICE_OPEN_EQUIPMENT,OFFICE_OPEN_3,148.05,7.0,962.314,6.500,137.473,0.100,0.200,0.000,0.700,General,0.000,769.851,288.694,769.851,0.000,288.694,0.000,0.000,0.000,0.000
 ElectricEquipment Internal Gains Nominal, OFFICE_PRIVATE_3_EQUIPMENT,OFFICE_OPEN_EQUIPMENT,OFFICE_PRIVATE_3,42.09,2.0,273.577,6.500,136.788,0.100,0.200,0.000,0.700,General,0.000,218.861,82.073,218.861,0.000,82.073,0.000,0.000,0.000,0.000
 ElectricEquipment Internal Gains Nominal, STORAGE_3_EQUIPMENT,STORAGE_EQUIPMENT,STORAGE_3,16.58,1.0,14.925,0.900,14.925,0.100,0.200,0.000,0.700,General,0.000,11.940,4.478,11.940,0.000,4.478,0.000,0.000,0.000,0.000
 ElectricEquipment Internal Gains Nominal, MECHANICAL_4_EQUIPMENT,MECHANICAL_EQUIPMENT,MECHANICAL_4,47.90,1.0,0.000,0.000,0.000,0.100,0.200,0.000,0.700,General,0.000,0.000,0.000,0.000,0.000,0.000,0.000,0.000,0.000,0.000
 ElectricEquipment Internal Gains Nominal, STORAGE_4_EQUIPMENT,STORAGE_EQUIPMENT,STORAGE_4,29.50,1.0,26.552,0.900,26.552,0.100,0.200,0.000,0.700,General,0.000,21.242,7.966,21.242,0.000,7.966,0.000,0.000,0.000,0.000
! <Enclosure/Window Adjacency Daylighting Counts>, Enclosure Name, Number of Exterior Windows, Number of Exterior Windows in Adjacent Enclosures
Enclosure/Window Adjacency Daylighting Counts, LOBBY_0,4,0
Enclosure/Window Adjacency Daylighting Counts, CONFERENCE_0,4,0
Enclosure/Window Adjacency Daylighting Counts, OFFICE_PRIVATE_0,4,0
Enclosure/Window Adjacency Daylighting Counts, LOBBY_1,4,0
Enclosure/Window Adjacency Daylighting Counts, BREAK_ROOM_1,4,0
Enclosure/Window Adjacency Daylighting Counts, OFFICE_PRIVATE_1,4,0
Enclosure/Window Adjacency Daylighting Counts, BREAK_ROOM_2,4,0
Enclosure/Window Adjacency Daylighting Counts, LOBBY_3,4,0
Enclosure/Window Adjacency Daylighting Counts, OFFICE_OPEN_3,4,0
Enclosure/Window Adjacency Daylighting Counts, OFFICE_PRIVATE_3,4,0
! <Enclosure/Window Adjacency Daylighting Matrix>, Enclosure Name, Number of Adjacent Enclosures with Windows,Adjacent Enclosure Names - 1st 100 (max)
Enclosure/Window Adjacency Daylighting Matrix, LOBBY_0,0
Enclosure/Window Adjacency Daylighting Matrix, CONFERENCE_0,0
Enclosure/Window Adjacency Daylighting Matrix, OFFICE_PRIVATE_0,0
Enclosure/Window Adjacency Daylighting Matrix, LOBBY_1,0
Enclosure/Window Adjacency Daylighting Matrix, BREAK_ROOM_1,0
Enclosure/Window Adjacency Daylighting Matrix, OFFICE_PRIVATE_1,0
Enclosure/Window Adjacency Daylighting Matrix, BREAK_ROOM_2,0
Enclosure/Window Adjacency Daylighting Matrix, LOBBY_3,0
Enclosure/Window Adjacency Daylighting Matrix, OFFICE_OPEN_3,0
Enclosure/Window Adjacency Daylighting Matrix, OFFICE_PRIVATE_3,0
! <ZoneInfiltration Airflow Stats Nominal>,Name,Schedule Name,Zone Name, Zone Floor Area {m2}, # Zone Occupants,Design Volume Flow Rate {m3/s},Volume Flow Rate/Floor Area {m3/s-m2},Volume Flow Rate/Exterior Surface Area {m3/s-m2},ACH - Air Changes per Hour,Equation A - Constant Term Coefficient {},Equation B - Temperature Term Coefficient {1/C},Equation C - Velocity Term Coefficient {s/m}, Equation D - Velocity Squared Term Coefficient {s2/m2}
 ZoneInfiltration Airflow Stats Nominal, LOBBY_0_INFILTRATION,LOBBY_0_INFILTRATION_SCHEDULE,LOBBY_0,162.96,8.0,2.037E-002,1.250E-004,4.198E-005,0.150,1.000,0.480,6.000E-002,0.000
 ZoneInfiltration Airflow Stats Nominal, CONFERENCE_0_INFILTRATION,CONFERENCE_0_INFILTRATION_SCHEDULE,CONFERENCE_0,67.24,13.0,8.405E-003,1.250E-004,3.533E-005,0.150,1.000,0.480,6.000E-002,0.000
 ZoneInfiltration Airflow Stats Nominal, MECHANICAL_0_INFILTRATION,MECHANICAL_0_INFILTRATION_SCHEDULE,MECHANICAL_0,62.49,1.0,7.811E-003,1.250E-004,3.553E-005,0.150,1.000,0.480,6.000E-002,0.000
 ZoneInfiltration Airflow Stats Nominal, OFFICE_PRIVATE_0_INFILTRATION,OFFICE_PRIVATE_0_INFILTRATION_SCHEDULE,OFFICE_PRIVATE_0,31.15,1.0,3.894E-003,1.250E-004,2.996E-005,0.150,1.000,0.480,6.000E-002,0.000
 ZoneInfiltration Airflow Stats Nominal, LOBBY_1_INFILTRATION,LOBBY_1_INFILTRATION_SCHEDULE,LOBBY_1,170.83,8.0,2.135E-002,1.250E-004,4.209E-005,0.150,1.000,0.480,6.000E-002,0.000
 ZoneInfiltration Airflow Stats Nominal, BREAK_ROOM_1_INFILTRATION,BREAK_ROOM_1_INFILTRATION_SCHEDULE,BREAK_ROOM_1,55.31,5.0,6.914E-003,1.250E-004,3.422E-005,0.150,1.000,0.480,6.000E-002,0.000
 ZoneInfiltration Airflow Stats Nominal, OFFICE_PRIVATE_1_INFILTRATION,OFFICE_PRIVATE_1_INFILTRATION_SCHEDULE,OFFICE_PRIVATE_1,37.88,1.0,4.735E-003,1.250E-004,3.164E-005,0.150,1.000,0.480,6.000E-002,0.000
 ZoneInfiltration Airflow Stats Nominal, BREAK_ROOM_2_INFILTRATION,BREAK_ROOM_2_INFILTRATION_SCHEDULE,BREAK_ROOM_2,68.74,6.0,8.592E-003,1.250E-004,3.608E-005,0.150,1.000,0.480,6.000E-002,0.000
 ZoneInfiltration Airflow Stats Nominal, MECHANICAL_2_INFILTRATION,MECHANICAL_2_INFILTRATION_SCHEDULE,MECHANICAL_2,98.40,1.0,1.230E-002,1.250E-004,3.888E-005,0.150,1.000,0.480,6.000E-002,0.000
 ZoneInfiltration Airflow Stats Nominal, LOBBY_3_INFILTRATION,LOBBY_3_INFILTRATION_SCHEDULE,LOBBY_3,120.25,6.0,1.503E-002,1.250E-004,4.035E-005,0.150,1.000,0.480,6.000E-002,0.000
 ZoneInfiltration Airflow Stats Nominal, OFFICE_OPEN_3_INFILTRATION,OFFICE_OPEN_3_INFILTRATION_SCHEDULE,OFFICE_OPEN_3,148.05,7.0,1.851E-002,1.250E-004,4.167E-005,0.150,1.000,0.480,6.000E-002,0.000
 ZoneInfiltration Airflow Stats Nominal, OFFICE_PRIVATE_3_INFILTRATION,OFFICE_PRIVATE_3_INFILTRATION_SCHEDULE,OFFICE_PRIVATE_3,42.09,2.0,5.261E-003,1.250E-004,3.221E-005,0.150,1.000,0.480,6.000E-002,0.000
 ZoneInfiltration Airflow Stats Nominal, STORAGE_3_INFILTRATION,STORAGE_3_INFILTRATION_SCHEDULE,STORAGE_3,16.58,1.0,2.073E-003,1.250E-004,2.447E-005,0.150,1.000,0.480,6.000E-002,0.000
 ZoneInfiltration Airflow Stats Nominal, MECHANICAL_4_INFILTRATION,MECHANICAL_4_INFILTRATION_SCHEDULE,MECHANICAL_4,47.90,1.0,5.988E-003,1.250E-004,3.337E-005,0.150,1.000,0.480,6.000E-002,0.000
 ZoneInfiltration Airflow Stats Nominal, STORAGE_4_INFILTRATION,STORAGE_4_INFILTRATION_SCHEDULE,STORAGE_4,29.50,1.0,3.688E-003,1.250E-004,2.965E-005,0.150,1.000,0.480,6.000E-002,0.000
! <AirFlow Model>, Simple
 AirFlow Model, Simple
! <RoomAir Model>, Zone Name, Mixing/Mundt/UCSDDV/UCSDCV/UCSDUFI/UCSDUFE/User Defined
RoomAir Model,LOBBY_0,Mixing/Well-Stirred
RoomAir Model,CONFERENCE_0,Mixing/Well-Stirred
RoomAir Model,MECHANICAL_0,Mixing/Well-Stirred
RoomAir Model,OFFICE_PRIVATE_0,Mixing/Well-Stirred
RoomAir Model,LOBBY_1,Mixing/Well-Stirred
RoomAir Model,BREAK_ROOM_1,Mixing/Well-Stirred
RoomAir Model,OFFICE_PRIVATE_1,Mixing/Well-Stirred
RoomAir Model,BREAK_ROOM_2,Mixing/Well-Stirred
RoomAir Model,MECHANICAL_2,Mixing/Well-Stirred
RoomAir Model,LOBBY_3,Mixing/Well-Stirred
RoomAir Model,OFFICE_OPEN_3,Mixing/Well-Stirred
RoomAir Model,OFFICE_PRIVATE_3,Mixing/Well-Stirred
RoomAir Model,STORAGE_3,Mixing/Well-Stirred
RoomAir Model,MECHANICAL_4,Mixing/Well-Stirred
RoomAir Model,STORAGE_4,Mixing/Well-Stirred
! <AirflowNetwork Model:Control>, No Multizone or Distribution/Multizone with Distribution/Multizone without Distribution/Multizone with Distribution only during Fan Operation
AirflowNetwork Model:Control,NoMultizoneOrDistribution
! <Zone Volume Capacitance Multiplier>, Sensible Heat Capacity Multiplier, Moisture Capacity Multiplier, Carbon Dioxide Capacity Multiplier, Generic Contaminant Capacity Multiplier
Zone Volume Capacitance Multiplier,   1.000 ,   1.000,   1.000,   1.000
! <Component Sizing Information>, Component Type, Component Name, Input Field Description, Value
 Component Sizing Information, AirTerminal:SingleDuct:VAV:Reheat, LOBBY_0_Z1_VAVTERMINAL, User-Specified Maximum Air Flow Rate [m3/s], 0.81479
 Component Sizing Information, AirTerminal:SingleDuct:VAV:Reheat, LOBBY_0_Z1_VAVTERMINAL, Design Size Constant Minimum Air Flow Fraction, 0.20000
 Component Sizing Information, AirTerminal:SingleDuct:VAV:Reheat, LOBBY_0_Z1_VAVTERMINAL, User-Specified Constant Minimum Air Flow Fraction, 0.20000
 Component Sizing Information, AirTerminal:SingleDuct:VAV:Reheat, LOBBY_0_Z1_VAVTERMINAL, Design Size Minimum Air Flow Rate [m3/s], 0.16296
 Component Sizing Information, AirTerminal:SingleDuct:VAV:Reheat, LOBBY_0_Z1_VAVTERMINAL, Design Size Maximum Flow per Zone Floor Area during Reheat [m3/s-m2], 9.99995E-004
 Component Sizing Information, AirTerminal:SingleDuct:VAV:Reheat, LOBBY_0_Z1_VAVTERMINAL, Design Size Maximum Flow Fraction during Reheat [], 0.20000
 Component Sizing Information, AirTerminal:SingleDuct:VAV:Reheat, LOBBY_0_Z1_VAVTERMINAL, User-Specified Maximum Reheat Water Flow Rate [m3/s], 13.03659
 Component Sizing Information, Coil:Heating:Electric, LOBBY_0_Z1_REHEATCOIL, User-Specified Nominal Capacity [W], 3910.97846
 Component Sizing Information, AirTerminal:SingleDuct:VAV:Reheat, CONFERENCE_0_Z2_VAVTERMINAL, User-Specified Maximum Air Flow Rate [m3/s], 0.33620
 Component Sizing Information, AirTerminal:SingleDuct:VAV:Reheat, CONFERENCE_0_Z2_VAVTERMINAL, Design Size Constant Minimum Air Flow Fraction, 0.20000
 Component Sizing Information, AirTerminal:SingleDuct:VAV:Reheat, CONFERENCE_0_Z2_VAVTERMINAL, User-Specified Constant Minimum Air Flow Fraction, 0.20000
 Component Sizing Information, AirTerminal:SingleDuct:VAV:Reheat, CONFERENCE_0_Z2_VAVTERMINAL, Design Size Minimum Air Flow Rate [m3/s], 6.72403E-002
 Component Sizing Information, AirTerminal:SingleDuct:VAV:Reheat, CONFERENCE_0_Z2_VAVTERMINAL, Design Size Maximum Flow per Zone Floor Area during Reheat [m3/s-m2], 1.00001E-003
 Component Sizing Information, AirTerminal:SingleDuct:VAV:Reheat, CONFERENCE_0_Z2_VAVTERMINAL, Design Size Maximum Flow Fraction during Reheat [], 0.20000
 Component Sizing Information, AirTerminal:SingleDuct:VAV:Reheat, CONFERENCE_0_Z2_VAVTERMINAL, User-Specified Maximum Reheat Water Flow Rate [m3/s], 5.37922
 Component Sizing Information, Coil:Heating:Electric, CONFERENCE_0_Z2_REHEATCOIL, User-Specified Nominal Capacity [W], 1613.76615
 Component Sizing Information, AirTerminal:SingleDuct:VAV:Reheat, MECHANICAL_0_Z3_VAVTERMINAL, User-Specified Maximum Air Flow Rate [m3/s], 0.31245
 Component Sizing Information, AirTerminal:SingleDuct:VAV:Reheat, MECHANICAL_0_Z3_VAVTERMINAL, Design Size Constant Minimum Air Flow Fraction, 0.20000
 Component Sizing Information, AirTerminal:SingleDuct:VAV:Reheat, MECHANICAL_0_Z3_VAVTERMINAL, User-Specified Constant Minimum Air Flow Fraction, 0.20000
 Component Sizing Information, AirTerminal:SingleDuct:VAV:Reheat, MECHANICAL_0_Z3_VAVTERMINAL, Design Size Minimum Air Flow Rate [m3/s], 6.24895E-002
 Component Sizing Information, AirTerminal:SingleDuct:VAV:Reheat, MECHANICAL_0_Z3_VAVTERMINAL, Design Size Maximum Flow per Zone Floor Area during Reheat [m3/s-m2], 9.99994E-004
 Component Sizing Information, AirTerminal:SingleDuct:VAV:Reheat, MECHANICAL_0_Z3_VAVTERMINAL, Design Size Maximum Flow Fraction during Reheat [], 0.20000
 Component Sizing Information, AirTerminal:SingleDuct:VAV:Reheat, MECHANICAL_0_Z3_VAVTERMINAL, User-Specified Maximum Reheat Water Flow Rate [m3/s], 4.99916
 Component Sizing Information, Coil:Heating:Electric, MECHANICAL_0_Z3_REHEATCOIL, User-Specified Nominal Capacity [W], 1499.74842
 Component Sizing Information, AirTerminal:SingleDuct:VAV:Reheat, OFFICE_PRIVATE_0_Z4_VAVTERMINAL, User-Specified Maximum Air Flow Rate [m3/s], 0.15576
 Component Sizing Information, AirTerminal:SingleDuct:VAV:Reheat, OFFICE_PRIVATE_0_Z4_VAVTERMINAL, Design Size Constant Minimum Air Flow Fraction, 0.20000
 Component Sizing Information, AirTerminal:SingleDuct:VAV:Reheat, OFFICE_PRIVATE_0_Z4_VAVTERMINAL, User-Specified Constant Minimum Air Flow Fraction, 0.20000
 Component Sizing Information, AirTerminal:SingleDuct:VAV:Reheat, OFFICE_PRIVATE_0_Z4_VAVTERMINAL, Design Size Minimum Air Flow Rate [m3/s], 3.11519E-002
 Component Sizing Information, AirTerminal:SingleDuct:VAV:Reheat, OFFICE_PRIVATE_0_Z4_VAVTERMINAL, Design Size Maximum Flow per Zone Floor Area during Reheat [m3/s-m2], 1.00002E-003
 Component Sizing Information, AirTerminal:SingleDuct:VAV:Reheat, OFFICE_PRIVATE_0_Z4_VAVTERMINAL, Design Size Maximum Flow Fraction during Reheat [], 0.20000
 Component Sizing Information, AirTerminal:SingleDuct:VAV:Reheat, OFFICE_PRIVATE_0_Z4_VAVTERMINAL, User-Specified Maximum Reheat Water Flow Rate [m3/s], 2.49215
 Component Sizing Information, Coil:Heating:Electric, OFFICE_PRIVATE_0_Z4_REHEATCOIL, User-Specified Nominal Capacity [W], 747.64598
 Component Sizing Information, AirTerminal:SingleDuct:VAV:Reheat, LOBBY_1_Z5_VAVTERMINAL, User-Specified Maximum Air Flow Rate [m3/s], 0.85413
 Component Sizing Information, AirTerminal:SingleDuct:VAV:Reheat, LOBBY_1_Z5_VAVTERMINAL, Design Size Constant Minimum Air Flow Fraction, 0.20000
 Component Sizing Information, AirTerminal:SingleDuct:VAV:Reheat, LOBBY_1_Z5_VAVTERMINAL, User-Specified Constant Minimum Air Flow Fraction, 0.20000
 Component Sizing Information, AirTerminal:SingleDuct:VAV:Reheat, LOBBY_1_Z5_VAVTERMINAL, Design Size Minimum Air Flow Rate [m3/s], 0.17083
 Component Sizing Information, AirTerminal:SingleDuct:VAV:Reheat, LOBBY_1_Z5_VAVTERMINAL, Design Size Maximum Flow per Zone Floor Area during Reheat [m3/s-m2], 9.99998E-004
 Component Sizing Information, AirTerminal:SingleDuct:VAV:Reheat, LOBBY_1_Z5_VAVTERMINAL, Design Size Maximum Flow Fraction during Reheat [], 0.20000
 Component Sizing Information, AirTerminal:SingleDuct:VAV:Reheat, LOBBY_1_Z5_VAVTERMINAL, User-Specified Maximum Reheat Water Flow Rate [m3/s], 13.66609
 Component Sizing Information, Coil:Heating:Electric, LOBBY_1_Z5_REHEATCOIL, User-Specified Nominal Capacity [W], 4099.82736
 Component Sizing Information, AirTerminal:SingleDuct:VAV:Reheat, BREAK_ROOM_1_Z6_VAVTERMINAL, User-Specified Maximum Air Flow Rate [m3/s], 0.27655
 Component Sizing Information, AirTerminal:SingleDuct:VAV:Reheat, BREAK_ROOM_1_Z6_VAVTERMINAL, Design Size Constant Minimum Air Flow Fraction, 0.20000
 Component Sizing Information, AirTerminal:SingleDuct:VAV:Reheat, BREAK_ROOM_1_Z6_VAVTERMINAL, User-Specified Constant Minimum Air Flow Fraction, 0.20000
 Component Sizing Information, AirTerminal:SingleDuct:VAV:Reheat, BREAK_ROOM_1_Z6_VAVTERMINAL, Design Size Minimum Air Flow Rate [m3/s], 5.53108E-002
 Component Sizing Information, AirTerminal:SingleDuct:VAV:Reheat, BREAK_ROOM_1_Z6_VAVTERMINAL, Design Size Maximum Flow per Zone Floor Area during Reheat [m3/s-m2], 1.00001E-003
 Component Sizing Information, AirTerminal:SingleDuct:VAV:Reheat, BREAK_ROOM_1_Z6_VAVTERMINAL, Design Size Maximum Flow Fraction during Reheat [], 0.20000
 Component Sizing Information, AirTerminal:SingleDuct:VAV:Reheat, BREAK_ROOM_1_Z6_VAVTERMINAL, User-Specified Maximum Reheat Water Flow Rate [m3/s], 4.42486
 Component Sizing Information, Coil:Heating:Electric, BREAK_ROOM_1_Z6_REHEATCOIL, User-Specified Nominal Capacity [W], 1327.45825
 Component Sizing Information, AirTerminal:SingleDuct:VAV:Reheat, OFFICE_PRIVATE_1_Z7_VAVTERMINAL, User-Specified Maximum Air Flow Rate [m3/s], 0.18942
 Component Sizing Information, AirTerminal:SingleDuct:VAV:Reheat, OFFICE_PRIVATE_1_Z7_VAVTERMINAL, Design Size Constant Minimum Air Flow Fraction, 0.20000
 Component Sizing Information, AirTerminal:SingleDuct:VAV:Reheat, OFFICE_PRIVATE_1_Z7_VAVTERMINAL, User-Specified Constant Minimum Air Flow Fraction, 0.20000
 Component Sizing Information, AirTerminal:SingleDuct:VAV:Reheat, OFFICE_PRIVATE_1_Z7_VAVTERMINAL, Design Size Minimum Air Flow Rate [m3/s], 3.78839E-002
 Component Sizing Information, AirTerminal:SingleDuct:VAV:Reheat, OFFICE_PRIVATE_1_Z7_VAVTERMINAL, Design Size Maximum Flow per Zone Floor Area during Reheat [m3/s-m2], 1.00000E-003
 Component Sizing Information, AirTerminal:SingleDuct:VAV:Reheat, OFFICE_PRIVATE_1_Z7_VAVTERMINAL, Design Size Maximum Flow Fraction during Reheat [], 0.20000
 Component Sizing Information, AirTerminal:SingleDuct:VAV:Reheat, OFFICE_PRIVATE_1_Z7_VAVTERMINAL, User-Specified Maximum Reheat Water Flow Rate [m3/s], 3.03071
 Component Sizing Information, Coil:Heating:Electric, OFFICE_PRIVATE_1_Z7_REHEATCOIL, User-Specified Nominal Capacity [W], 909.21382
 Component Sizing Information, AirTerminal:SingleDuct:VAV:Reheat, BREAK_ROOM_2_Z8_VAVTERMINAL, User-Specified Maximum Air Flow Rate [m3/s], 0.34370
 Component Sizing Information, AirTerminal:SingleDuct:VAV:Reheat, BREAK_ROOM_2_Z8_VAVTERMINAL, Design Size Constant Minimum Air Flow Fraction, 0.20000
 Component Sizing Information, AirTerminal:SingleDuct:VAV:Reheat, BREAK_ROOM_2_Z8_VAVTERMINAL, User-Specified Constant Minimum Air Flow Fraction, 0.20000
 Component Sizing Information, AirTerminal:SingleDuct:VAV:Reheat, BREAK_ROOM_2_Z8_VAVTERMINAL, Design Size Minimum Air Flow Rate [m3/s], 6.87392E-002
 Component Sizing Information, AirTerminal:SingleDuct:VAV:Reheat, BREAK_ROOM_2_Z8_VAVTERMINAL, Design Size Maximum Flow per Zone Floor Area during Reheat [m3/s-m2], 9.99991E-004
 Component Sizing Information, AirTerminal:SingleDuct:VAV:Reheat, BREAK_ROOM_2_Z8_VAVTERMINAL, Design Size Maximum Flow Fraction during Reheat [], 0.20000
 Component Sizing Information, AirTerminal:SingleDuct:VAV:Reheat, BREAK_ROOM_2_Z8_VAVTERMINAL, User-Specified Maximum Reheat Water Flow Rate [m3/s], 5.49913
 Component Sizing Information, Coil:Heating:Electric, BREAK_ROOM_2_Z8_REHEATCOIL, User-Specified Nominal Capacity [W], 1649.73967
 Component Sizing Information, AirTerminal:SingleDuct:VAV:Reheat, MECHANICAL_2_Z9_VAVTERMINAL, User-Specified Maximum Air Flow Rate [m3/s], 0.49201
 Component Sizing Information, AirTerminal:SingleDuct:VAV:Reheat, MECHANICAL_2_Z9_VAVTERMINAL, Design Size Constant Minimum Air Flow Fraction, 0.20000
 Component Sizing Information, AirTerminal:SingleDuct:VAV:Reheat, MECHANICAL_2_Z9_VAVTERMINAL, User-Specified Constant Minimum Air Flow Fraction, 0.20000
 Component Sizing Information, AirTerminal:SingleDuct:VAV:Reheat, MECHANICAL_2_Z9_VAVTERMINAL, Design Size Minimum Air Flow Rate [m3/s], 9.84022E-002
 Component Sizing Information, AirTerminal:SingleDuct:VAV:Reheat, MECHANICAL_2_Z9_VAVTERMINAL, Design Size Maximum Flow per Zone Floor Area during Reheat [m3/s-m2], 9.99997E-004
 Component Sizing Information, AirTerminal:SingleDuct:VAV:Reheat, MECHANICAL_2_Z9_VAVTERMINAL, Design Size Maximum Flow Fraction during Reheat [], 0.20000
 Component Sizing Information, AirTerminal:SingleDuct:VAV:Reheat, MECHANICAL_2_Z9_VAVTERMINAL, User-Specified Maximum Reheat Water Flow Rate [m3/s], 7.87217
 Component Sizing Information, Coil:Heating:Electric, MECHANICAL_2_Z9_REHEATCOIL, User-Specified Nominal Capacity [W], 2361.65166
 Component Sizing Information, AirTerminal:SingleDuct:VAV:Reheat, LOBBY_3_Z10_VAVTERMINAL, User-Specified Maximum Air Flow Rate [m3/s], 0.60124
 Component Sizing Information, AirTerminal:SingleDuct:VAV:Reheat, LOBBY_3_Z10_VAVTERMINAL, Design Size Constant Minimum Air Flow Fraction, 0.20000
 Component Sizing Information, AirTerminal:SingleDuct:VAV:Reheat, LOBBY_3_Z10_VAVTERMINAL, User-Specified Constant Minimum Air Flow Fraction, 0.20000
 Component Sizing Information, AirTerminal:SingleDuct:VAV:Reheat, LOBBY_3_Z10_VAVTERMINAL, Design Size Minimum Air Flow Rate [m3/s], 0.12025
 Component Sizing Information, AirTerminal:SingleDuct:VAV:Reheat, LOBBY_3_Z10_VAVTERMINAL, Design Size Maximum Flow per Zone Floor Area during Reheat [m3/s-m2], 1.00001E-003
 Component Sizing Information, AirTerminal:SingleDuct:VAV:Reheat, LOBBY_3_Z10_VAVTERMINAL, Design Size Maximum Flow Fraction during Reheat [], 0.20000
 Component Sizing Information, AirTerminal:SingleDuct:VAV:Reheat, LOBBY_3_Z10_VAVTERMINAL, User-Specified Maximum Reheat Water Flow Rate [m3/s], 9.61990
 Component Sizing Information, Coil:Heating:Electric, LOBBY_3_Z10_REHEATCOIL, User-Specified Nominal Capacity [W], 2885.96863
 Component Sizing Information, AirTerminal:SingleDuct:VAV:Reheat, OFFICE_OPEN_3_Z11_VAVTERMINAL, User-Specified Maximum Air Flow Rate [m3/s], 0.74024
 Component Sizing Information, AirTerminal:SingleDuct:VAV:Reheat, OFFICE_OPEN_3_Z11_VAVTERMINAL, Design Size Constant Minimum Air Flow Fraction, 0.20000
 Component Sizing Information, AirTerminal:SingleDuct:VAV:Reheat, OFFICE_OPEN_3_Z11_VAVTERMINAL, User-Specified Constant Minimum Air Flow Fraction, 0.20000
 Component Sizing Information, AirTerminal:SingleDuct:VAV:Reheat, OFFICE_OPEN_3_Z11_VAVTERMINAL, Design Size Minimum Air Flow Rate [m3/s], 0.14805
 Component Sizing Information, AirTerminal:SingleDuct:VAV:Reheat, OFFICE_OPEN_3_Z11_VAVTERMINAL, Design Size Maximum Flow per Zone Floor Area during Reheat [m3/s-m2], 1.00000E-003
 Component Sizing Information, AirTerminal:SingleDuct:VAV:Reheat, OFFICE_OPEN_3_Z11_VAVTERMINAL, Design Size Maximum Flow Fraction during Reheat [], 0.20000
 Component Sizing Information, AirTerminal:SingleDuct:VAV:Reheat, OFFICE_OPEN_3_Z11_VAVTERMINAL, User-Specified Maximum Reheat Water Flow Rate [m3/s], 11.84391
 Component Sizing Information, Coil:Heating:Electric, OFFICE_OPEN_3_Z11_REHEATCOIL, User-Specified Nominal Capacity [W], 3553.17205
 Component Sizing Information, AirTerminal:SingleDuct:VAV:Reheat, OFFICE_PRIVATE_3_Z12_VAVTERMINAL, User-Specified Maximum Air Flow Rate [m3/s], 0.21045
 Component Sizing Information, AirTerminal:SingleDuct:VAV:Reheat, OFFICE_PRIVATE_3_Z12_VAVTERMINAL, Design Size Constant Minimum Air Flow Fraction, 0.20000
 Component Sizing Information, AirTerminal:SingleDuct:VAV:Reheat, OFFICE_PRIVATE_3_Z12_VAVTERMINAL, User-Specified Constant Minimum Air Flow Fraction, 0.20000
 Component Sizing Information, AirTerminal:SingleDuct:VAV:Reheat, OFFICE_PRIVATE_3_Z12_VAVTERMINAL, Design Size Minimum Air Flow Rate [m3/s], 4.20892E-002
 Component Sizing Information, AirTerminal:SingleDuct:VAV:Reheat, OFFICE_PRIVATE_3_Z12_VAVTERMINAL, Design Size Maximum Flow per Zone Floor Area during Reheat [m3/s-m2], 1.00001E-003
 Component Sizing Information, AirTerminal:SingleDuct:VAV:Reheat, OFFICE_PRIVATE_3_Z12_VAVTERMINAL, Design Size Maximum Flow Fraction during Reheat [], 0.20000
 Component Sizing Information, AirTerminal:SingleDuct:VAV:Reheat, OFFICE_PRIVATE_3_Z12_VAVTERMINAL, User-Specified Maximum Reheat Water Flow Rate [m3/s], 3.36714
 Component Sizing Information, Coil:Heating:Electric, OFFICE_PRIVATE_3_Z12_REHEATCOIL, User-Specified Nominal Capacity [W], 1010.14065
 Component Sizing Information, AirTerminal:SingleDuct:VAV:Reheat, STORAGE_3_Z13_VAVTERMINAL, User-Specified Maximum Air Flow Rate [m3/s], 8.29202E-002
 Component Sizing Information, AirTerminal:SingleDuct:VAV:Reheat, STORAGE_3_Z13_VAVTERMINAL, Design Size Constant Minimum Air Flow Fraction, 0.20000
 Component Sizing Information, AirTerminal:SingleDuct:VAV:Reheat, STORAGE_3_Z13_VAVTERMINAL, User-Specified Constant Minimum Air Flow Fraction, 0.20000
 Component Sizing Information, AirTerminal:SingleDuct:VAV:Reheat, STORAGE_3_Z13_VAVTERMINAL, Design Size Minimum Air Flow Rate [m3/s], 1.65840E-002
 Component Sizing Information, AirTerminal:SingleDuct:VAV:Reheat, STORAGE_3_Z13_VAVTERMINAL, Design Size Maximum Flow per Zone Floor Area during Reheat [m3/s-m2], 1.00002E-003
 Component Sizing Information, AirTerminal:SingleDuct:VAV:Reheat, STORAGE_3_Z13_VAVTERMINAL, Design Size Maximum Flow Fraction during Reheat [], 0.20000
 Component Sizing Information, AirTerminal:SingleDuct:VAV:Reheat, STORAGE_3_Z13_VAVTERMINAL, User-Specified Maximum Reheat Water Flow Rate [m3/s], 1.32672
 Component Sizing Information, Coil:Heating:Electric, STORAGE_3_Z13_REHEATCOIL, User-Specified Nominal Capacity [W], 398.01679
 Component Sizing Information, AirTerminal:SingleDuct:VAV:Reheat, MECHANICAL_4_Z14_VAVTERMINAL, User-Specified Maximum Air Flow Rate [m3/s], 0.23952
 Component Sizing Information, AirTerminal:SingleDuct:VAV:Reheat, MECHANICAL_4_Z14_VAVTERMINAL, Design Size Constant Minimum Air Flow Fraction, 0.20000
 Component Sizing Information, AirTerminal:SingleDuct:VAV:Reheat, MECHANICAL_4_Z14_VAVTERMINAL, User-Specified Constant Minimum Air Flow Fraction, 0.20000
 Component Sizing Information, AirTerminal:SingleDuct:VAV:Reheat, MECHANICAL_4_Z14_VAVTERMINAL, Design Size Minimum Air Flow Rate [m3/s], 4.79038E-002
 Component Sizing Information, AirTerminal:SingleDuct:VAV:Reheat, MECHANICAL_4_Z14_VAVTERMINAL, Design Size Maximum Flow per Zone Floor Area during Reheat [m3/s-m2], 1.00001E-003
 Component Sizing Information, AirTerminal:SingleDuct:VAV:Reheat, MECHANICAL_4_Z14_VAVTERMINAL, Design Size Maximum Flow Fraction during Reheat [], 0.20000
 Component Sizing Information, AirTerminal:SingleDuct:VAV:Reheat, MECHANICAL_4_Z14_VAVTERMINAL, User-Specified Maximum Reheat Water Flow Rate [m3/s], 3.83231
 Component Sizing Information, Coil:Heating:Electric, MECHANICAL_4_Z14_REHEATCOIL, User-Specified Nominal Capacity [W], 1149.69178
 Component Sizing Information, AirTerminal:SingleDuct:VAV:Reheat, STORAGE_4_Z15_VAVTERMINAL, User-Specified Maximum Air Flow Rate [m3/s], 0.14751
 Component Sizing Information, AirTerminal:SingleDuct:VAV:Reheat, STORAGE_4_Z15_VAVTERMINAL, Design Size Constant Minimum Air Flow Fraction, 0.20000
 Component Sizing Information, AirTerminal:SingleDuct:VAV:Reheat, STORAGE_4_Z15_VAVTERMINAL, User-Specified Constant Minimum Air Flow Fraction, 0.20000
 Component Sizing Information, AirTerminal:SingleDuct:VAV:Reheat, STORAGE_4_Z15_VAVTERMINAL, Design Size Minimum Air Flow Rate [m3/s], 2.95018E-002
 Component Sizing Information, AirTerminal:SingleDuct:VAV:Reheat, STORAGE_4_Z15_VAVTERMINAL, Design Size Maximum Flow per Zone Floor Area during Reheat [m3/s-m2], 9.99985E-004
 Component Sizing Information, AirTerminal:SingleDuct:VAV:Reheat, STORAGE_4_Z15_VAVTERMINAL, Design Size Maximum Flow Fraction during Reheat [], 0.20000
 Component Sizing Information, AirTerminal:SingleDuct:VAV:Reheat, STORAGE_4_Z15_VAVTERMINAL, User-Specified Maximum Reheat Water Flow Rate [m3/s], 2.36015
 Component Sizing Information, Coil:Heating:Electric, STORAGE_4_Z15_REHEATCOIL, User-Specified Nominal Capacity [W], 708.04367
 Component Sizing Information, Coil:Cooling:DX:SingleSpeed, LOBBY_0_Z1_COOLINGCOILDX, User-Specified Rated Air Flow Rate [m3/s], 0.81479
 Component Sizing Information, Coil:Cooling:DX:SingleSpeed, LOBBY_0_Z1_COOLINGCOILDX, User-Specified Gross Rated Total Cooling Capacity [W], 16295.74358
 Component Sizing Information, Coil:Cooling:DX:SingleSpeed, LOBBY_0_Z1_COOLINGCOILDX, User-Specified Gross Rated Sensible Heat Ratio, 0.75000
! <DX Cooling Coil Standard Rating Information>, Component Type, Component Name, Standard Rating (Net) Cooling Capacity {W}, Standard Rating Net COP {W/W}, EER {Btu/W-h}, SEER User {Btu/W-h}, SEER Standard {Btu/W-h}, IEER {Btu/W-h}
 DX Cooling Coil Standard Rating Information, Coil:Cooling:DX:SingleSpeed, LOBBY_0_Z1_COOLINGCOILDX, 15663.1, 30.39, 103.71, 66.69, 63.09, 43.8
! <DX Cooling Coil AHRI 2023 Standard Rating Information>, Component Type, Component Name, Standard Rating (Net) Cooling Capacity {W}, Standard Rating Net COP2 {W/W}, EER2 {Btu/W-h}, SEER2 User {Btu/W-h}, SEER2 Standard {Btu/W-h}, IEER 2022 {Btu/W-h}
 DX Cooling Coil AHRI 2023 Standard Rating Information, Coil:Cooling:DX:SingleSpeed, LOBBY_0_Z1_COOLINGCOILDX, 15663.1, 30.39, 103.71, 66.69, 64.89, 43.8
 Component Sizing Information, Coil:Heating:Electric, LOBBY_0_Z1_HEATINGCOIL, User-Specified Nominal Capacity [W], 13036.59486
 Component Sizing Information, Fan:VariableVolume, LOBBY_0_Z1_SUPPLYFAN, User-Specified Maximum Flow Rate [m3/s], 0.81479
 Component Sizing Information, Fan:VariableVolume, LOBBY_0_Z1_SUPPLYFAN, Design Electric Power Consumption [W], 698.38901
 Component Sizing Information, Coil:Cooling:DX:SingleSpeed, CONFERENCE_0_Z2_COOLINGCOILDX, User-Specified Rated Air Flow Rate [m3/s], 0.33620
 Component Sizing Information, Coil:Cooling:DX:SingleSpeed, CONFERENCE_0_Z2_COOLINGCOILDX, User-Specified Gross Rated Total Cooling Capacity [W], 6724.02561
 Component Sizing Information, Coil:Cooling:DX:SingleSpeed, CONFERENCE_0_Z2_COOLINGCOILDX, User-Specified Gross Rated Sensible Heat Ratio, 0.75000
 DX Cooling Coil Standard Rating Information, Coil:Cooling:DX:SingleSpeed, CONFERENCE_0_Z2_COOLINGCOILDX, 6463.0, 30.39, 103.71, 66.69, 63.09, 43.8
 DX Cooling Coil AHRI 2023 Standard Rating Information, Coil:Cooling:DX:SingleSpeed, CONFERENCE_0_Z2_COOLINGCOILDX, 6463.0, 30.39, 103.71, 66.69, 64.89, 43.8
 Component Sizing Information, Coil:Heating:Electric, CONFERENCE_0_Z2_HEATINGCOIL, User-Specified Nominal Capacity [W], 5379.22049
 Component Sizing Information, Fan:VariableVolume, CONFERENCE_0_Z2_SUPPLYFAN, User-Specified Maximum Flow Rate [m3/s], 0.33620
 Component Sizing Information, Fan:VariableVolume, CONFERENCE_0_Z2_SUPPLYFAN, Design Electric Power Consumption [W], 288.17253
 Component Sizing Information, Coil:Cooling:DX:SingleSpeed, MECHANICAL_0_Z3_COOLINGCOILDX, User-Specified Rated Air Flow Rate [m3/s], 0.31245
 Component Sizing Information, Coil:Cooling:DX:SingleSpeed, MECHANICAL_0_Z3_COOLINGCOILDX, User-Specified Gross Rated Total Cooling Capacity [W], 6248.95176
 Component Sizing Information, Coil:Cooling:DX:SingleSpeed, MECHANICAL_0_Z3_COOLINGCOILDX, User-Specified Gross Rated Sensible Heat Ratio, 0.75000
 DX Cooling Coil Standard Rating Information, Coil:Cooling:DX:SingleSpeed, MECHANICAL_0_Z3_COOLINGCOILDX, 6006.3, 30.39, 103.71, 66.69, 63.09, 43.8
 DX Cooling Coil AHRI 2023 Standard Rating Information, Coil:Cooling:DX:SingleSpeed, MECHANICAL_0_Z3_COOLINGCOILDX, 6006.3, 30.39, 103.71, 66.69, 64.89, 43.8
 Component Sizing Information, Coil:Heating:Electric, MECHANICAL_0_Z3_HEATINGCOIL, User-Specified Nominal Capacity [W], 4999.16141
 Component Sizing Information, Fan:VariableVolume, MECHANICAL_0_Z3_SUPPLYFAN, User-Specified Maximum Flow Rate [m3/s], 0.31245
 Component Sizing Information, Fan:VariableVolume, MECHANICAL_0_Z3_SUPPLYFAN, Design Electric Power Consumption [W], 267.81222
 Component Sizing Information, Coil:Cooling:DX:SingleSpeed, OFFICE_PRIVATE_0_Z4_COOLINGCOILDX, User-Specified Rated Air Flow Rate [m3/s], 0.15576
 Component Sizing Information, Coil:Cooling:DX:SingleSpeed, OFFICE_PRIVATE_0_Z4_COOLINGCOILDX, User-Specified Gross Rated Total Cooling Capacity [W], 3115.19159
 Component Sizing Information, Coil:Cooling:DX:SingleSpeed, OFFICE_PRIVATE_0_Z4_COOLINGCOILDX, User-Specified Gross Rated Sensible Heat Ratio, 0.75000
 DX Cooling Coil Standard Rating Information, Coil:Cooling:DX:SingleSpeed, OFFICE_PRIVATE_0_Z4_COOLINGCOILDX, 2994.2, 30.39, 103.71, 66.69, 63.09, 43.8
 DX Cooling Coil AHRI 2023 Standard Rating Information, Coil:Cooling:DX:SingleSpeed, OFFICE_PRIVATE_0_Z4_COOLINGCOILDX, 2994.2, 30.39, 103.71, 66.69, 64.89, 43.8
 Component Sizing Information, Coil:Heating:Electric, OFFICE_PRIVATE_0_Z4_HEATINGCOIL, User-Specified Nominal Capacity [W], 2492.15327
 Component Sizing Information, Fan:VariableVolume, OFFICE_PRIVATE_0_Z4_SUPPLYFAN, User-Specified Maximum Flow Rate [m3/s], 0.15576
 Component Sizing Information, Fan:VariableVolume, OFFICE_PRIVATE_0_Z4_SUPPLYFAN, Design Electric Power Consumption [W], 133.50821
 Component Sizing Information, Coil:Cooling:DX:SingleSpeed, LOBBY_1_Z5_COOLINGCOILDX, User-Specified Rated Air Flow Rate [m3/s], 0.85413
 Component Sizing Information, Coil:Cooling:DX:SingleSpeed, LOBBY_1_Z5_COOLINGCOILDX, User-Specified Gross Rated Total Cooling Capacity [W], 17082.61401
 Component Sizing Information, Coil:Cooling:DX:SingleSpeed, LOBBY_1_Z5_COOLINGCOILDX, User-Specified Gross Rated Sensible Heat Ratio, 0.75000
 DX Cooling Coil Standard Rating Information, Coil:Cooling:DX:SingleSpeed, LOBBY_1_Z5_COOLINGCOILDX, 16419.4, 30.39, 103.71, 66.69, 63.09, 43.8
 DX Cooling Coil AHRI 2023 Standard Rating Information, Coil:Cooling:DX:SingleSpeed, LOBBY_1_Z5_COOLINGCOILDX, 16419.4, 30.39, 103.71, 66.69, 64.89, 43.8
 Component Sizing Information, Coil:Heating:Electric, LOBBY_1_Z5_HEATINGCOIL, User-Specified Nominal Capacity [W], 13666.09121
 Component Sizing Information, Fan:VariableVolume, LOBBY_1_Z5_SUPPLYFAN, User-Specified Maximum Flow Rate [m3/s], 0.85413
 Component Sizing Information, Fan:VariableVolume, LOBBY_1_Z5_SUPPLYFAN, Design Electric Power Consumption [W], 732.11203
 Component Sizing Information, Coil:Cooling:DX:SingleSpeed, BREAK_ROOM_1_Z6_COOLINGCOILDX, User-Specified Rated Air Flow Rate [m3/s], 0.27655
 Component Sizing Information, Coil:Cooling:DX:SingleSpeed, BREAK_ROOM_1_Z6_COOLINGCOILDX, User-Specified Gross Rated Total Cooling Capacity [W], 5531.07602
 Component Sizing Information, Coil:Cooling:DX:SingleSpeed, BREAK_ROOM_1_Z6_COOLINGCOILDX, User-Specified Gross Rated Sensible Heat Ratio, 0.75000
 DX Cooling Coil Standard Rating Information, Coil:Cooling:DX:SingleSpeed, BREAK_ROOM_1_Z6_COOLINGCOILDX, 5316.3, 30.39, 103.71, 66.69, 63.09, 43.8
 DX Cooling Coil AHRI 2023 Standard Rating Information, Coil:Cooling:DX:SingleSpeed, BREAK_ROOM_1_Z6_COOLINGCOILDX, 5316.3, 30.39, 103.71, 66.69, 64.89, 43.8
 Component Sizing Information, Coil:Heating:Electric, BREAK_ROOM_1_Z6_HEATINGCOIL, User-Specified Nominal Capacity [W], 4424.86082
 Component Sizing Information, Fan:VariableVolume, BREAK_ROOM_1_Z6_SUPPLYFAN, User-Specified Maximum Flow Rate [m3/s], 0.27655
 Component Sizing Information, Fan:VariableVolume, BREAK_ROOM_1_Z6_SUPPLYFAN, Design Electric Power Consumption [W], 237.04612
 Component Sizing Information, Coil:Cooling:DX:SingleSpeed, OFFICE_PRIVATE_1_Z7_COOLINGCOILDX, User-Specified Rated Air Flow Rate [m3/s], 0.18942
 Component Sizing Information, Coil:Cooling:DX:SingleSpeed, OFFICE_PRIVATE_1_Z7_COOLINGCOILDX, User-Specified Gross Rated Total Cooling Capacity [W], 3788.39090
 Component Sizing Information, Coil:Cooling:DX:SingleSpeed, OFFICE_PRIVATE_1_Z7_COOLINGCOILDX, User-Specified Gross Rated Sensible Heat Ratio, 0.75000
 DX Cooling Coil Standard Rating Information, Coil:Cooling:DX:SingleSpeed, OFFICE_PRIVATE_1_Z7_COOLINGCOILDX, 3641.3, 30.39, 103.71, 66.69, 63.09, 43.8
 DX Cooling Coil AHRI 2023 Standard Rating Information, Coil:Cooling:DX:SingleSpeed, OFFICE_PRIVATE_1_Z7_COOLINGCOILDX, 3641.3, 30.39, 103.71, 66.69, 64.89, 43.8
 Component Sizing Information, Coil:Heating:Electric, OFFICE_PRIVATE_1_Z7_HEATINGCOIL, User-Specified Nominal Capacity [W], 3030.71272
 Component Sizing Information, Fan:VariableVolume, OFFICE_PRIVATE_1_Z7_SUPPLYFAN, User-Specified Maximum Flow Rate [m3/s], 0.18942
 Component Sizing Information, Fan:VariableVolume, OFFICE_PRIVATE_1_Z7_SUPPLYFAN, Design Electric Power Consumption [W], 162.35961
 Component Sizing Information, Coil:Cooling:DX:SingleSpeed, BREAK_ROOM_2_Z8_COOLINGCOILDX, User-Specified Rated Air Flow Rate [m3/s], 0.34370
 Component Sizing Information, Coil:Cooling:DX:SingleSpeed, BREAK_ROOM_2_Z8_COOLINGCOILDX, User-Specified Gross Rated Total Cooling Capacity [W], 6873.91529
 Component Sizing Information, Coil:Cooling:DX:SingleSpeed, BREAK_ROOM_2_Z8_COOLINGCOILDX, User-Specified Gross Rated Sensible Heat Ratio, 0.75000
 DX Cooling Coil Standard Rating Information, Coil:Cooling:DX:SingleSpeed, BREAK_ROOM_2_Z8_COOLINGCOILDX, 6607.0, 30.39, 103.71, 66.69, 63.09, 43.8
 DX Cooling Coil AHRI 2023 Standard Rating Information, Coil:Cooling:DX:SingleSpeed, BREAK_ROOM_2_Z8_COOLINGCOILDX, 6607.0, 30.39, 103.71, 66.69, 64.89, 43.8
 Component Sizing Information, Coil:Heating:Electric, BREAK_ROOM_2_Z8_HEATINGCOIL, User-Specified Nominal Capacity [W], 5499.13223
 Component Sizing Information, Fan:VariableVolume, BREAK_ROOM_2_Z8_SUPPLYFAN, User-Specified Maximum Flow Rate [m3/s], 0.34370
 Component Sizing Information, Fan:VariableVolume, BREAK_ROOM_2_Z8_SUPPLYFAN, Design Electric Power Consumption [W], 294.59637
 Component Sizing Information, Coil:Cooling:DX:SingleSpeed, MECHANICAL_2_Z9_COOLINGCOILDX, User-Specified Rated Air Flow Rate [m3/s], 0.49201
 Component Sizing Information, Coil:Cooling:DX:SingleSpeed, MECHANICAL_2_Z9_COOLINGCOILDX, User-Specified Gross Rated Total Cooling Capacity [W], 9840.21526
 Component Sizing Information, Coil:Cooling:DX:SingleSpeed, MECHANICAL_2_Z9_COOLINGCOILDX, User-Specified Gross Rated Sensible Heat Ratio, 0.75000
 DX Cooling Coil Standard Rating Information, Coil:Cooling:DX:SingleSpeed, MECHANICAL_2_Z9_COOLINGCOILDX, 9458.2, 30.39, 103.71, 66.69, 63.09, 43.8
 DX Cooling Coil AHRI 2023 Standard Rating Information, Coil:Cooling:DX:SingleSpeed, MECHANICAL_2_Z9_COOLINGCOILDX, 9458.2, 30.39, 103.71, 66.69, 64.89, 43.8
 Component Sizing Information, Coil:Heating:Electric, MECHANICAL_2_Z9_HEATINGCOIL, User-Specified Nominal Capacity [W], 7872.17221
 Component Sizing Information, Fan:VariableVolume, MECHANICAL_2_Z9_SUPPLYFAN, User-Specified Maximum Flow Rate [m3/s], 0.49201
 Component Sizing Information, Fan:VariableVolume, MECHANICAL_2_Z9_SUPPLYFAN, Design Electric Power Consumption [W], 421.72351
 Component Sizing Information, Coil:Cooling:DX:SingleSpeed, LOBBY_3_Z10_COOLINGCOILDX, User-Specified Rated Air Flow Rate [m3/s], 0.60124
 Component Sizing Information, Coil:Cooling:DX:SingleSpeed, LOBBY_3_Z10_COOLINGCOILDX, User-Specified Gross Rated Total Cooling Capacity [W], 12024.86931
 Component Sizing Information, Coil:Cooling:DX:SingleSpeed, LOBBY_3_Z10_COOLINGCOILDX, User-Specified Gross Rated Sensible Heat Ratio, 0.75000
 DX Cooling Coil Standard Rating Information, Coil:Cooling:DX:SingleSpeed, LOBBY_3_Z10_COOLINGCOILDX, 11558.0, 30.39, 103.71, 66.69, 63.09, 43.8
 DX Cooling Coil AHRI 2023 Standard Rating Information, Coil:Cooling:DX:SingleSpeed, LOBBY_3_Z10_COOLINGCOILDX, 11558.0, 30.39, 103.71, 66.69, 64.89, 43.8
 Component Sizing Information, Coil:Heating:Electric, LOBBY_3_Z10_HEATINGCOIL, User-Specified Nominal Capacity [W], 9619.89545
 Component Sizing Information, Fan:VariableVolume, LOBBY_3_Z10_SUPPLYFAN, User-Specified Maximum Flow Rate [m3/s], 0.60124
 Component Sizing Information, Fan:VariableVolume, LOBBY_3_Z10_SUPPLYFAN, Design Electric Power Consumption [W], 515.35154
 Component Sizing Information, Coil:Cooling:DX:SingleSpeed, OFFICE_OPEN_3_Z11_COOLINGCOILDX, User-Specified Rated Air Flow Rate [m3/s], 0.74024
 Component Sizing Information, Coil:Cooling:DX:SingleSpeed, OFFICE_OPEN_3_Z11_COOLINGCOILDX, User-Specified Gross Rated Total Cooling Capacity [W], 14804.88355
 Component Sizing Information, Coil:Cooling:DX:SingleSpeed, OFFICE_OPEN_3_Z11_COOLINGCOILDX, User-Specified Gross Rated Sensible Heat Ratio, 0.75000
 DX Cooling Coil Standard Rating Information, Coil:Cooling:DX:SingleSpeed, OFFICE_OPEN_3_Z11_COOLINGCOILDX, 14230.1, 30.39, 103.71, 66.69, 63.09, 43.8
 DX Cooling Coil AHRI 2023 Standard Rating Information, Coil:Cooling:DX:SingleSpeed, OFFICE_OPEN_3_Z11_COOLINGCOILDX, 14230.1, 30.39, 103.71, 66.69, 64.89, 43.8
 Component Sizing Information, Coil:Heating:Electric, OFFICE_OPEN_3_Z11_HEATINGCOIL, User-Specified Nominal Capacity [W], 11843.90684
 Component Sizing Information, Fan:VariableVolume, OFFICE_OPEN_3_Z11_SUPPLYFAN, User-Specified Maximum Flow Rate [m3/s], 0.74024
 Component Sizing Information, Fan:VariableVolume, OFFICE_OPEN_3_Z11_SUPPLYFAN, Design Electric Power Consumption [W], 634.49501
 Component Sizing Information, Coil:Cooling:DX:SingleSpeed, OFFICE_PRIVATE_3_Z12_COOLINGCOILDX, User-Specified Rated Air Flow Rate [m3/s], 0.21045
 Component Sizing Information, Coil:Cooling:DX:SingleSpeed, OFFICE_PRIVATE_3_Z12_COOLINGCOILDX, User-Specified Gross Rated Total Cooling Capacity [W], 4208.91939
 Component Sizing Information, Coil:Cooling:DX:SingleSpeed, OFFICE_PRIVATE_3_Z12_COOLINGCOILDX, User-Specified Gross Rated Sensible Heat Ratio, 0.75000
 DX Cooling Coil Standard Rating Information, Coil:Cooling:DX:SingleSpeed, OFFICE_PRIVATE_3_Z12_COOLINGCOILDX, 4045.5, 30.39, 103.71, 66.69, 63.09, 43.8
 DX Cooling Coil AHRI 2023 Standard Rating Information, Coil:Cooling:DX:SingleSpeed, OFFICE_PRIVATE_3_Z12_COOLINGCOILDX, 4045.5, 30.39, 103.71, 66.69, 64.89, 43.8
 Component Sizing Information, Coil:Heating:Electric, OFFICE_PRIVATE_3_Z12_HEATINGCOIL, User-Specified Nominal Capacity [W], 3367.13551
 Component Sizing Information, Fan:VariableVolume, OFFICE_PRIVATE_3_Z12_SUPPLYFAN, User-Specified Maximum Flow Rate [m3/s], 0.21045
 Component Sizing Information, Fan:VariableVolume, OFFICE_PRIVATE_3_Z12_SUPPLYFAN, Design Electric Power Consumption [W], 180.38226
 Component Sizing Information, Coil:Cooling:DX:SingleSpeed, STORAGE_3_Z13_COOLINGCOILDX, User-Specified Rated Air Flow Rate [m3/s], 8.29202E-002
 Component Sizing Information, Coil:Cooling:DX:SingleSpeed, STORAGE_3_Z13_COOLINGCOILDX, User-Specified Gross Rated Total Cooling Capacity [W], 1658.40327
 Component Sizing Information, Coil:Cooling:DX:SingleSpeed, STORAGE_3_Z13_COOLINGCOILDX, User-Specified Gross Rated Sensible Heat Ratio, 0.75000
 DX Cooling Coil Standard Rating Information, Coil:Cooling:DX:SingleSpeed, STORAGE_3_Z13_COOLINGCOILDX, 1594.0, 30.39, 103.71, 66.69, 63.09, 43.8
 DX Cooling Coil AHRI 2023 Standard Rating Information, Coil:Cooling:DX:SingleSpeed, STORAGE_3_Z13_COOLINGCOILDX, 1594.0, 30.39, 103.71, 66.69, 64.89, 43.8
 Component Sizing Information, Coil:Heating:Electric, STORAGE_3_Z13_HEATINGCOIL, User-Specified Nominal Capacity [W], 1326.72262
 Component Sizing Information, Fan:VariableVolume, STORAGE_3_Z13_SUPPLYFAN, User-Specified Maximum Flow Rate [m3/s], 8.29202E-002
 Component Sizing Information, Fan:VariableVolume, STORAGE_3_Z13_SUPPLYFAN, Design Electric Power Consumption [W], 71.07443
 Component Sizing Information, Coil:Cooling:DX:SingleSpeed, MECHANICAL_4_Z14_COOLINGCOILDX, User-Specified Rated Air Flow Rate [m3/s], 0.23952
 Component Sizing Information, Coil:Cooling:DX:SingleSpeed, MECHANICAL_4_Z14_COOLINGCOILDX, User-Specified Gross Rated Total Cooling Capacity [W], 4790.38242
 Component Sizing Information, Coil:Cooling:DX:SingleSpeed, MECHANICAL_4_Z14_COOLINGCOILDX, User-Specified Gross Rated Sensible Heat Ratio, 0.75000
 DX Cooling Coil Standard Rating Information, Coil:Cooling:DX:SingleSpeed, MECHANICAL_4_Z14_COOLINGCOILDX, 4604.4, 30.39, 103.71, 66.69, 63.09, 43.8
 DX Cooling Coil AHRI 2023 Standard Rating Information, Coil:Cooling:DX:SingleSpeed, MECHANICAL_4_Z14_COOLINGCOILDX, 4604.4, 30.39, 103.71, 66.69, 64.89, 43.8
 Component Sizing Information, Coil:Heating:Electric, MECHANICAL_4_Z14_HEATINGCOIL, User-Specified Nominal Capacity [W], 3832.30594
 Component Sizing Information, Fan:VariableVolume, MECHANICAL_4_Z14_SUPPLYFAN, User-Specified Maximum Flow Rate [m3/s], 0.23952
 Component Sizing Information, Fan:VariableVolume, MECHANICAL_4_Z14_SUPPLYFAN, Design Electric Power Consumption [W], 205.30210
 Component Sizing Information, Coil:Cooling:DX:SingleSpeed, STORAGE_4_Z15_COOLINGCOILDX, User-Specified Rated Air Flow Rate [m3/s], 0.14751
 Component Sizing Information, Coil:Cooling:DX:SingleSpeed, STORAGE_4_Z15_COOLINGCOILDX, User-Specified Gross Rated Total Cooling Capacity [W], 2950.18197
 Component Sizing Information, Coil:Cooling:DX:SingleSpeed, STORAGE_4_Z15_COOLINGCOILDX, User-Specified Gross Rated Sensible Heat Ratio, 0.75000
 DX Cooling Coil Standard Rating Information, Coil:Cooling:DX:SingleSpeed, STORAGE_4_Z15_COOLINGCOILDX, 2835.6, 30.39, 103.71, 66.69, 63.09, 43.8
 DX Cooling Coil AHRI 2023 Standard Rating Information, Coil:Cooling:DX:SingleSpeed, STORAGE_4_Z15_COOLINGCOILDX, 2835.6, 30.39, 103.71, 66.69, 64.89, 43.8
 Component Sizing Information, Coil:Heating:Electric, STORAGE_4_Z15_HEATINGCOIL, User-Specified Nominal Capacity [W], 2360.14558
 Component Sizing Information, Fan:VariableVolume, STORAGE_4_Z15_SUPPLYFAN, User-Specified Maximum Flow Rate [m3/s], 0.14751
 Component Sizing Information, Fan:VariableVolume, STORAGE_4_Z15_SUPPLYFAN, Design Electric Power Consumption [W], 126.43637
! <Environment>,Environment Name,Environment Type, Start Date, End Date, Start DayOfWeek, Duration {#days}, Source:Start DayOfWeek,  Use Daylight Saving, Use Holidays, Apply Weekend Holiday Rule,  Use Rain Values, Use Snow Values, Sky Temperature Model
! <Environment:Special Days>, Special Day Name, Special Day Type, Source, Start Date, Duration {#days}
! <Environment:Daylight Saving>, Daylight Saving Indicator, Source, Start Date, End Date
! <Environment:WarmupDays>, NumberofWarmupDays
Environment,YEAR ROUND RUN PERIOD,WeatherFileRunPeriod,01/01/2017,12/31/2017,Sunday,365,Use RunPeriod Specified Day,Yes,Yes,Yes,Yes,Yes,Clark and Allen
Environment:Daylight Saving,No,
! <Sky Daylight Factors>, Sky Type, MonthAndDay, Daylighting Control Name, Enclosure Name, Window Name, Reference Point, Daylight Factor
 Sky Daylight Factors,Clear Sky,01/01,LOBBY_0_DAYLIGHT,LOBBY_0,LOBBY_0_WINDOW_1,LOBBY_0_REFERENCEPOINT1,4.5789E-003
 Sky Daylight Factors,Clear Turbid Sky,01/01,LOBBY_0_DAYLIGHT,LOBBY_0,LOBBY_0_WINDOW_1,LOBBY_0_REFERENCEPOINT1,5.1014E-003
 Sky Daylight Factors,Intermediate Sky,01/01,LOBBY_0_DAYLIGHT,LOBBY_0,LOBBY_0_WINDOW_1,LOBBY_0_REFERENCEPOINT1,3.2465E-003
 Sky Daylight Factors,Overcast Sky,01/01,LOBBY_0_DAYLIGHT,LOBBY_0,LOBBY_0_WINDOW_1,LOBBY_0_REFERENCEPOINT1,1.6813E-003
 Sky Daylight Factors,Clear Sky,01/01,LOBBY_0_DAYLIGHT,LOBBY_0,LOBBY_0_WINDOW_2,LOBBY_0_REFERENCEPOINT1,0.0000
 Sky Daylight Factors,Clear Turbid Sky,01/01,LOBBY_0_DAYLIGHT,LOBBY_0,LOBBY_0_WINDOW_2,LOBBY_0_REFERENCEPOINT1,0.0000
 Sky Daylight Factors,Intermediate Sky,01/01,LOBBY_0_DAYLIGHT,LOBBY_0,LOBBY_0_WINDOW_2,LOBBY_0_REFERENCEPOINT1,0.0000
 Sky Daylight Factors,Overcast Sky,01/01,LOBBY_0_DAYLIGHT,LOBBY_0,LOBBY_0_WINDOW_2,LOBBY_0_REFERENCEPOINT1,0.0000
 Sky Daylight Factors,Clear Sky,01/01,LOBBY_0_DAYLIGHT,LOBBY_0,LOBBY_0_WINDOW_3,LOBBY_0_REFERENCEPOINT1,2.4077E-003
 Sky Daylight Factors,Clear Turbid Sky,01/01,LOBBY_0_DAYLIGHT,LOBBY_0,LOBBY_0_WINDOW_3,LOBBY_0_REFERENCEPOINT1,1.9937E-003
 Sky Daylight Factors,Intermediate Sky,01/01,LOBBY_0_DAYLIGHT,LOBBY_0,LOBBY_0_WINDOW_3,LOBBY_0_REFERENCEPOINT1,1.8508E-003
 Sky Daylight Factors,Overcast Sky,01/01,LOBBY_0_DAYLIGHT,LOBBY_0,LOBBY_0_WINDOW_3,LOBBY_0_REFERENCEPOINT1,2.6028E-003
 Sky Daylight Factors,Clear Sky,01/01,LOBBY_0_DAYLIGHT,LOBBY_0,LOBBY_0_WINDOW_4,LOBBY_0_REFERENCEPOINT1,5.3839E-003
 Sky Daylight Factors,Clear Turbid Sky,01/01,LOBBY_0_DAYLIGHT,LOBBY_0,LOBBY_0_WINDOW_4,LOBBY_0_REFERENCEPOINT1,5.0485E-003
 Sky Daylight Factors,Intermediate Sky,01/01,LOBBY_0_DAYLIGHT,LOBBY_0,LOBBY_0_WINDOW_4,LOBBY_0_REFERENCEPOINT1,5.0699E-003
 Sky Daylight Factors,Overcast Sky,01/01,LOBBY_0_DAYLIGHT,LOBBY_0,LOBBY_0_WINDOW_4,LOBBY_0_REFERENCEPOINT1,4.3492E-003
 Sky Daylight Factors,Clear Sky,01/01,CONFERENCE_0_DAYLIGHT,CONFERENCE_0,CONFERENCE_0_WINDOW_1,CONFERENCE_0_REFERENCEPOINT1,5.5471E-003
 Sky Daylight Factors,Clear Turbid Sky,01/01,CONFERENCE_0_DAYLIGHT,CONFERENCE_0,CONFERENCE_0_WINDOW_1,CONFERENCE_0_REFERENCEPOINT1,6.2018E-003
 Sky Daylight Factors,Intermediate Sky,01/01,CONFERENCE_0_DAYLIGHT,CONFERENCE_0,CONFERENCE_0_WINDOW_1,CONFERENCE_0_REFERENCEPOINT1,3.9183E-003
 Sky Daylight Factors,Overcast Sky,01/01,CONFERENCE_0_DAYLIGHT,CONFERENCE_0,CONFERENCE_0_WINDOW_1,CONFERENCE_0_REFERENCEPOINT1,2.0331E-003
 Sky Daylight Factors,Clear Sky,01/01,CONFERENCE_0_DAYLIGHT,CONFERENCE_0,CONFERENCE_0_WINDOW_2,CONFERENCE_0_REFERENCEPOINT1,5.0132E-003
 Sky Daylight Factors,Clear Turbid Sky,01/01,CONFERENCE_0_DAYLIGHT,CONFERENCE_0,CONFERENCE_0_WINDOW_2,CONFERENCE_0_REFERENCEPOINT1,4.7887E-003
 Sky Daylight Factors,Intermediate Sky,01/01,CONFERENCE_0_DAYLIGHT,CONFERENCE_0,CONFERENCE_0_WINDOW_2,CONFERENCE_0_REFERENCEPOINT1,4.5050E-003
 Sky Daylight Factors,Overcast Sky,01/01,CONFERENCE_0_DAYLIGHT,CONFERENCE_0,CONFERENCE_0_WINDOW_2,CONFERENCE_0_REFERENCEPOINT1,3.6143E-003
 Sky Daylight Factors,Clear Sky,01/01,CONFERENCE_0_DAYLIGHT,CONFERENCE_0,CONFERENCE_0_WINDOW_3,CONFERENCE_0_REFERENCEPOINT1,1.7844E-003
 Sky Daylight Factors,Clear Turbid Sky,01/01,CONFERENCE_0_DAYLIGHT,CONFERENCE_0,CONFERENCE_0_WINDOW_3,CONFERENCE_0_REFERENCEPOINT1,1.5325E-003
 Sky Daylight Factors,Intermediate Sky,01/01,CONFERENCE_0_DAYLIGHT,CONFERENCE_0,CONFERENCE_0_WINDOW_3,CONFERENCE_0_REFERENCEPOINT1,1.6756E-003
 Sky Daylight Factors,Overcast Sky,01/01,CONFERENCE_0_DAYLIGHT,CONFERENCE_0,CONFERENCE_0_WINDOW_3,CONFERENCE_0_REFERENCEPOINT1,2.4951E-003
 Sky Daylight Factors,Clear Sky,01/01,CONFERENCE_0_DAYLIGHT,CONFERENCE_0,CONFERENCE_0_WINDOW_4,CONFERENCE_0_REFERENCEPOINT1,0.0000
 Sky Daylight Factors,Clear Turbid Sky,01/01,CONFERENCE_0_DAYLIGHT,CONFERENCE_0,CONFERENCE_0_WINDOW_4,CONFERENCE_0_REFERENCEPOINT1,0.0000
 Sky Daylight Factors,Intermediate Sky,01/01,CONFERENCE_0_DAYLIGHT,CONFERENCE_0,CONFERENCE_0_WINDOW_4,CONFERENCE_0_REFERENCEPOINT1,0.0000
 Sky Daylight Factors,Overcast Sky,01/01,CONFERENCE_0_DAYLIGHT,CONFERENCE_0,CONFERENCE_0_WINDOW_4,CONFERENCE_0_REFERENCEPOINT1,0.0000
 Sky Daylight Factors,Clear Sky,01/01,OFFICE_PRIVATE_0_DAYLIGHT,OFFICE_PRIVATE_0,OFFICE_PRIVATE_0_WINDOW_1,OFFICE_PRIVATE_0_REFERENCEPOINT1,0.0000
 Sky Daylight Factors,Clear Turbid Sky,01/01,OFFICE_PRIVATE_0_DAYLIGHT,OFFICE_PRIVATE_0,OFFICE_PRIVATE_0_WINDOW_1,OFFICE_PRIVATE_0_REFERENCEPOINT1,0.0000
 Sky Daylight Factors,Intermediate Sky,01/01,OFFICE_PRIVATE_0_DAYLIGHT,OFFICE_PRIVATE_0,OFFICE_PRIVATE_0_WINDOW_1,OFFICE_PRIVATE_0_REFERENCEPOINT1,0.0000
 Sky Daylight Factors,Overcast Sky,01/01,OFFICE_PRIVATE_0_DAYLIGHT,OFFICE_PRIVATE_0,OFFICE_PRIVATE_0_WINDOW_1,OFFICE_PRIVATE_0_REFERENCEPOINT1,0.0000
 Sky Daylight Factors,Clear Sky,01/01,OFFICE_PRIVATE_0_DAYLIGHT,OFFICE_PRIVATE_0,OFFICE_PRIVATE_0_WINDOW_2,OFFICE_PRIVATE_0_REFERENCEPOINT1,0.0000
 Sky Daylight Factors,Clear Turbid Sky,01/01,OFFICE_PRIVATE_0_DAYLIGHT,OFFICE_PRIVATE_0,OFFICE_PRIVATE_0_WINDOW_2,OFFICE_PRIVATE_0_REFERENCEPOINT1,0.0000
 Sky Daylight Factors,Intermediate Sky,01/01,OFFICE_PRIVATE_0_DAYLIGHT,OFFICE_PRIVATE_0,OFFICE_PRIVATE_0_WINDOW_2,OFFICE_PRIVATE_0_REFERENCEPOINT1,0.0000
 Sky Daylight Factors,Overcast Sky,01/01,OFFICE_PRIVATE_0_DAYLIGHT,OFFICE_PRIVATE_0,OFFICE_PRIVATE_0_WINDOW_2,OFFICE_PRIVATE_0_REFERENCEPOINT1,0.0000
 Sky Daylight Factors,Clear Sky,01/01,OFFICE_PRIVATE_0_DAYLIGHT,OFFICE_PRIVATE_0,OFFICE_PRIVATE_0_WINDOW_3,OFFICE_PRIVATE_0_REFERENCEPOINT1,0.0000
 Sky Daylight Factors,Clear Turbid Sky,01/01,OFFICE_PRIVATE_0_DAYLIGHT,OFFICE_PRIVATE_0,OFFICE_PRIVATE_0_WINDOW_3,OFFICE_PRIVATE_0_REFERENCEPOINT1,0.0000
 Sky Daylight Factors,Intermediate Sky,01/01,OFFICE_PRIVATE_0_DAYLIGHT,OFFICE_PRIVATE_0,OFFICE_PRIVATE_0_WINDOW_3,OFFICE_PRIVATE_0_REFERENCEPOINT1,0.0000
 Sky Daylight Factors,Overcast Sky,01/01,OFFICE_PRIVATE_0_DAYLIGHT,OFFICE_PRIVATE_0,OFFICE_PRIVATE_0_WINDOW_3,OFFICE_PRIVATE_0_REFERENCEPOINT1,0.0000
 Sky Daylight Factors,Clear Sky,01/01,OFFICE_PRIVATE_0_DAYLIGHT,OFFICE_PRIVATE_0,OFFICE_PRIVATE_0_WINDOW_4,OFFICE_PRIVATE_0_REFERENCEPOINT1,0.0000
 Sky Daylight Factors,Clear Turbid Sky,01/01,OFFICE_PRIVATE_0_DAYLIGHT,OFFICE_PRIVATE_0,OFFICE_PRIVATE_0_WINDOW_4,OFFICE_PRIVATE_0_REFERENCEPOINT1,0.0000
 Sky Daylight Factors,Intermediate Sky,01/01,OFFICE_PRIVATE_0_DAYLIGHT,OFFICE_PRIVATE_0,OFFICE_PRIVATE_0_WINDOW_4,OFFICE_PRIVATE_0_REFERENCEPOINT1,0.0000
 Sky Daylight Factors,Overcast Sky,01/01,OFFICE_PRIVATE_0_DAYLIGHT,OFFICE_PRIVATE_0,OFFICE_PRIVATE_0_WINDOW_4,OFFICE_PRIVATE_0_REFERENCEPOINT1,0.0000
 Sky Daylight Factors,Clear Sky,01/01,LOBBY_1_DAYLIGHT,LOBBY_1,LOBBY_1_WINDOW_1,LOBBY_1_REFERENCEPOINT1,3.4636E-003
 Sky Daylight Factors,Clear Turbid Sky,01/01,LOBBY_1_DAYLIGHT,LOBBY_1,LOBBY_1_WINDOW_1,LOBBY_1_REFERENCEPOINT1,3.9153E-003
 Sky Daylight Factors,Intermediate Sky,01/01,LOBBY_1_DAYLIGHT,LOBBY_1,LOBBY_1_WINDOW_1,LOBBY_1_REFERENCEPOINT1,2.3599E-003
 Sky Daylight Factors,Overcast Sky,01/01,LOBBY_1_DAYLIGHT,LOBBY_1,LOBBY_1_WINDOW_1,LOBBY_1_REFERENCEPOINT1,1.1964E-003
 Sky Daylight Factors,Clear Sky,01/01,LOBBY_1_DAYLIGHT,LOBBY_1,LOBBY_1_WINDOW_2,LOBBY_1_REFERENCEPOINT1,1.3270E-003
 Sky Daylight Factors,Clear Turbid Sky,01/01,LOBBY_1_DAYLIGHT,LOBBY_1,LOBBY_1_WINDOW_2,LOBBY_1_REFERENCEPOINT1,1.2083E-003
 Sky Daylight Factors,Intermediate Sky,01/01,LOBBY_1_DAYLIGHT,LOBBY_1,LOBBY_1_WINDOW_2,LOBBY_1_REFERENCEPOINT1,1.1954E-003
 Sky Daylight Factors,Overcast Sky,01/01,LOBBY_1_DAYLIGHT,LOBBY_1,LOBBY_1_WINDOW_2,LOBBY_1_REFERENCEPOINT1,1.3999E-003
 Sky Daylight Factors,Clear Sky,01/01,LOBBY_1_DAYLIGHT,LOBBY_1,LOBBY_1_WINDOW_3,LOBBY_1_REFERENCEPOINT1,2.9916E-003
 Sky Daylight Factors,Clear Turbid Sky,01/01,LOBBY_1_DAYLIGHT,LOBBY_1,LOBBY_1_WINDOW_3,LOBBY_1_REFERENCEPOINT1,2.4350E-003
 Sky Daylight Factors,Intermediate Sky,01/01,LOBBY_1_DAYLIGHT,LOBBY_1,LOBBY_1_WINDOW_3,LOBBY_1_REFERENCEPOINT1,2.1843E-003
 Sky Daylight Factors,Overcast Sky,01/01,LOBBY_1_DAYLIGHT,LOBBY_1,LOBBY_1_WINDOW_3,LOBBY_1_REFERENCEPOINT1,3.0194E-003
 Sky Daylight Factors,Clear Sky,01/01,LOBBY_1_DAYLIGHT,LOBBY_1,LOBBY_1_WINDOW_4,LOBBY_1_REFERENCEPOINT1,5.5139E-003
 Sky Daylight Factors,Clear Turbid Sky,01/01,LOBBY_1_DAYLIGHT,LOBBY_1,LOBBY_1_WINDOW_4,LOBBY_1_REFERENCEPOINT1,5.1733E-003
 Sky Daylight Factors,Intermediate Sky,01/01,LOBBY_1_DAYLIGHT,LOBBY_1,LOBBY_1_WINDOW_4,LOBBY_1_REFERENCEPOINT1,5.1950E-003
 Sky Daylight Factors,Overcast Sky,01/01,LOBBY_1_DAYLIGHT,LOBBY_1,LOBBY_1_WINDOW_4,LOBBY_1_REFERENCEPOINT1,4.4630E-003
 Sky Daylight Factors,Clear Sky,01/01,BREAK_ROOM_1_DAYLIGHT,BREAK_ROOM_1,BREAK_ROOM_1_WINDOW_1,BREAK_ROOM_1_REFERENCEPOINT1,6.5952E-003
 Sky Daylight Factors,Clear Turbid Sky,01/01,BREAK_ROOM_1_DAYLIGHT,BREAK_ROOM_1,BREAK_ROOM_1_WINDOW_1,BREAK_ROOM_1_REFERENCEPOINT1,7.3416E-003
 Sky Daylight Factors,Intermediate Sky,01/01,BREAK_ROOM_1_DAYLIGHT,BREAK_ROOM_1,BREAK_ROOM_1_WINDOW_1,BREAK_ROOM_1_REFERENCEPOINT1,4.6911E-003
 Sky Daylight Factors,Overcast Sky,01/01,BREAK_ROOM_1_DAYLIGHT,BREAK_ROOM_1,BREAK_ROOM_1_WINDOW_1,BREAK_ROOM_1_REFERENCEPOINT1,2.4541E-003
 Sky Daylight Factors,Clear Sky,01/01,BREAK_ROOM_1_DAYLIGHT,BREAK_ROOM_1,BREAK_ROOM_1_WINDOW_2,BREAK_ROOM_1_REFERENCEPOINT1,6.8158E-003
 Sky Daylight Factors,Clear Turbid Sky,01/01,BREAK_ROOM_1_DAYLIGHT,BREAK_ROOM_1,BREAK_ROOM_1_WINDOW_2,BREAK_ROOM_1_REFERENCEPOINT1,6.3975E-003
 Sky Daylight Factors,Intermediate Sky,01/01,BREAK_ROOM_1_DAYLIGHT,BREAK_ROOM_1,BREAK_ROOM_1_WINDOW_2,BREAK_ROOM_1_REFERENCEPOINT1,6.4599E-003
 Sky Daylight Factors,Overcast Sky,01/01,BREAK_ROOM_1_DAYLIGHT,BREAK_ROOM_1,BREAK_ROOM_1_WINDOW_2,BREAK_ROOM_1_REFERENCEPOINT1,5.5605E-003
 Sky Daylight Factors,Clear Sky,01/01,BREAK_ROOM_1_DAYLIGHT,BREAK_ROOM_1,BREAK_ROOM_1_WINDOW_3,BREAK_ROOM_1_REFERENCEPOINT1,2.9358E-003
 Sky Daylight Factors,Clear Turbid Sky,01/01,BREAK_ROOM_1_DAYLIGHT,BREAK_ROOM_1,BREAK_ROOM_1_WINDOW_3,BREAK_ROOM_1_REFERENCEPOINT1,2.4786E-003
 Sky Daylight Factors,Intermediate Sky,01/01,BREAK_ROOM_1_DAYLIGHT,BREAK_ROOM_1,BREAK_ROOM_1_WINDOW_3,BREAK_ROOM_1_REFERENCEPOINT1,2.5119E-003
 Sky Daylight Factors,Overcast Sky,01/01,BREAK_ROOM_1_DAYLIGHT,BREAK_ROOM_1,BREAK_ROOM_1_WINDOW_3,BREAK_ROOM_1_REFERENCEPOINT1,3.4276E-003
 Sky Daylight Factors,Clear Sky,01/01,BREAK_ROOM_1_DAYLIGHT,BREAK_ROOM_1,BREAK_ROOM_1_WINDOW_4,BREAK_ROOM_1_REFERENCEPOINT1,6.7717E-003
 Sky Daylight Factors,Clear Turbid Sky,01/01,BREAK_ROOM_1_DAYLIGHT,BREAK_ROOM_1,BREAK_ROOM_1_WINDOW_4,BREAK_ROOM_1_REFERENCEPOINT1,6.3603E-003
 Sky Daylight Factors,Intermediate Sky,01/01,BREAK_ROOM_1_DAYLIGHT,BREAK_ROOM_1,BREAK_ROOM_1_WINDOW_4,BREAK_ROOM_1_REFERENCEPOINT1,6.4049E-003
 Sky Daylight Factors,Overcast Sky,01/01,BREAK_ROOM_1_DAYLIGHT,BREAK_ROOM_1,BREAK_ROOM_1_WINDOW_4,BREAK_ROOM_1_REFERENCEPOINT1,5.4857E-003
 Sky Daylight Factors,Clear Sky,01/01,OFFICE_PRIVATE_1_DAYLIGHT,OFFICE_PRIVATE_1,OFFICE_PRIVATE_1_WINDOW_1,OFFICE_PRIVATE_1_REFERENCEPOINT1,3.8204E-003
 Sky Daylight Factors,Clear Turbid Sky,01/01,OFFICE_PRIVATE_1_DAYLIGHT,OFFICE_PRIVATE_1,OFFICE_PRIVATE_1_WINDOW_1,OFFICE_PRIVATE_1_REFERENCEPOINT1,4.1652E-003
 Sky Daylight Factors,Intermediate Sky,01/01,OFFICE_PRIVATE_1_DAYLIGHT,OFFICE_PRIVATE_1,OFFICE_PRIVATE_1_WINDOW_1,OFFICE_PRIVATE_1_REFERENCEPOINT1,2.7257E-003
 Sky Daylight Factors,Overcast Sky,01/01,OFFICE_PRIVATE_1_DAYLIGHT,OFFICE_PRIVATE_1,OFFICE_PRIVATE_1_WINDOW_1,OFFICE_PRIVATE_1_REFERENCEPOINT1,1.4729E-003
 Sky Daylight Factors,Clear Sky,01/01,OFFICE_PRIVATE_1_DAYLIGHT,OFFICE_PRIVATE_1,OFFICE_PRIVATE_1_WINDOW_2,OFFICE_PRIVATE_1_REFERENCEPOINT1,3.5849E-003
 Sky Daylight Factors,Clear Turbid Sky,01/01,OFFICE_PRIVATE_1_DAYLIGHT,OFFICE_PRIVATE_1,OFFICE_PRIVATE_1_WINDOW_2,OFFICE_PRIVATE_1_REFERENCEPOINT1,3.3140E-003
 Sky Daylight Factors,Intermediate Sky,01/01,OFFICE_PRIVATE_1_DAYLIGHT,OFFICE_PRIVATE_1,OFFICE_PRIVATE_1_WINDOW_2,OFFICE_PRIVATE_1_REFERENCEPOINT1,2.8001E-003
 Sky Daylight Factors,Overcast Sky,01/01,OFFICE_PRIVATE_1_DAYLIGHT,OFFICE_PRIVATE_1,OFFICE_PRIVATE_1_WINDOW_2,OFFICE_PRIVATE_1_REFERENCEPOINT1,2.1377E-003
 Sky Daylight Factors,Clear Sky,01/01,OFFICE_PRIVATE_1_DAYLIGHT,OFFICE_PRIVATE_1,OFFICE_PRIVATE_1_WINDOW_3,OFFICE_PRIVATE_1_REFERENCEPOINT1,3.7673E-003
 Sky Daylight Factors,Clear Turbid Sky,01/01,OFFICE_PRIVATE_1_DAYLIGHT,OFFICE_PRIVATE_1,OFFICE_PRIVATE_1_WINDOW_3,OFFICE_PRIVATE_1_REFERENCEPOINT1,3.1340E-003
 Sky Daylight Factors,Intermediate Sky,01/01,OFFICE_PRIVATE_1_DAYLIGHT,OFFICE_PRIVATE_1,OFFICE_PRIVATE_1_WINDOW_3,OFFICE_PRIVATE_1_REFERENCEPOINT1,2.4733E-003
 Sky Daylight Factors,Overcast Sky,01/01,OFFICE_PRIVATE_1_DAYLIGHT,OFFICE_PRIVATE_1,OFFICE_PRIVATE_1_WINDOW_3,OFFICE_PRIVATE_1_REFERENCEPOINT1,2.8622E-003
 Sky Daylight Factors,Clear Sky,01/01,OFFICE_PRIVATE_1_DAYLIGHT,OFFICE_PRIVATE_1,OFFICE_PRIVATE_1_WINDOW_4,OFFICE_PRIVATE_1_REFERENCEPOINT1,1.7170E-004
 Sky Daylight Factors,Clear Turbid Sky,01/01,OFFICE_PRIVATE_1_DAYLIGHT,OFFICE_PRIVATE_1,OFFICE_PRIVATE_1_WINDOW_4,OFFICE_PRIVATE_1_REFERENCEPOINT1,1.7583E-004
 Sky Daylight Factors,Intermediate Sky,01/01,OFFICE_PRIVATE_1_DAYLIGHT,OFFICE_PRIVATE_1,OFFICE_PRIVATE_1_WINDOW_4,OFFICE_PRIVATE_1_REFERENCEPOINT1,1.8878E-004
 Sky Daylight Factors,Overcast Sky,01/01,OFFICE_PRIVATE_1_DAYLIGHT,OFFICE_PRIVATE_1,OFFICE_PRIVATE_1_WINDOW_4,OFFICE_PRIVATE_1_REFERENCEPOINT1,2.3301E-004
 Sky Daylight Factors,Clear Sky,01/01,BREAK_ROOM_2_DAYLIGHT,BREAK_ROOM_2,BREAK_ROOM_2_WINDOW_1,BREAK_ROOM_2_REFERENCEPOINT1,6.2441E-004
 Sky Daylight Factors,Clear Turbid Sky,01/01,BREAK_ROOM_2_DAYLIGHT,BREAK_ROOM_2,BREAK_ROOM_2_WINDOW_1,BREAK_ROOM_2_REFERENCEPOINT1,6.1897E-004
 Sky Daylight Factors,Intermediate Sky,01/01,BREAK_ROOM_2_DAYLIGHT,BREAK_ROOM_2,BREAK_ROOM_2_WINDOW_1,BREAK_ROOM_2_REFERENCEPOINT1,5.4042E-004
 Sky Daylight Factors,Overcast Sky,01/01,BREAK_ROOM_2_DAYLIGHT,BREAK_ROOM_2,BREAK_ROOM_2_WINDOW_1,BREAK_ROOM_2_REFERENCEPOINT1,3.8819E-004
 Sky Daylight Factors,Clear Sky,01/01,BREAK_ROOM_2_DAYLIGHT,BREAK_ROOM_2,BREAK_ROOM_2_WINDOW_2,BREAK_ROOM_2_REFERENCEPOINT1,3.8285E-003
 Sky Daylight Factors,Clear Turbid Sky,01/01,BREAK_ROOM_2_DAYLIGHT,BREAK_ROOM_2,BREAK_ROOM_2_WINDOW_2,BREAK_ROOM_2_REFERENCEPOINT1,3.3713E-003
 Sky Daylight Factors,Intermediate Sky,01/01,BREAK_ROOM_2_DAYLIGHT,BREAK_ROOM_2,BREAK_ROOM_2_WINDOW_2,BREAK_ROOM_2_REFERENCEPOINT1,3.8194E-003
 Sky Daylight Factors,Overcast Sky,01/01,BREAK_ROOM_2_DAYLIGHT,BREAK_ROOM_2,BREAK_ROOM_2_WINDOW_2,BREAK_ROOM_2_REFERENCEPOINT1,4.0139E-003
 Sky Daylight Factors,Clear Sky,01/01,BREAK_ROOM_2_DAYLIGHT,BREAK_ROOM_2,BREAK_ROOM_2_WINDOW_3,BREAK_ROOM_2_REFERENCEPOINT1,4.7265E-003
 Sky Daylight Factors,Clear Turbid Sky,01/01,BREAK_ROOM_2_DAYLIGHT,BREAK_ROOM_2,BREAK_ROOM_2_WINDOW_3,BREAK_ROOM_2_REFERENCEPOINT1,3.8394E-003
 Sky Daylight Factors,Intermediate Sky,01/01,BREAK_ROOM_2_DAYLIGHT,BREAK_ROOM_2,BREAK_ROOM_2_WINDOW_3,BREAK_ROOM_2_REFERENCEPOINT1,3.4398E-003
 Sky Daylight Factors,Overcast Sky,01/01,BREAK_ROOM_2_DAYLIGHT,BREAK_ROOM_2,BREAK_ROOM_2_WINDOW_3,BREAK_ROOM_2_REFERENCEPOINT1,4.7708E-003
 Sky Daylight Factors,Clear Sky,01/01,BREAK_ROOM_2_DAYLIGHT,BREAK_ROOM_2,BREAK_ROOM_2_WINDOW_4,BREAK_ROOM_2_REFERENCEPOINT1,5.3504E-003
 Sky Daylight Factors,Clear Turbid Sky,01/01,BREAK_ROOM_2_DAYLIGHT,BREAK_ROOM_2,BREAK_ROOM_2_WINDOW_4,BREAK_ROOM_2_REFERENCEPOINT1,4.9699E-003
 Sky Daylight Factors,Intermediate Sky,01/01,BREAK_ROOM_2_DAYLIGHT,BREAK_ROOM_2,BREAK_ROOM_2_WINDOW_4,BREAK_ROOM_2_REFERENCEPOINT1,5.0050E-003
 Sky Daylight Factors,Overcast Sky,01/01,BREAK_ROOM_2_DAYLIGHT,BREAK_ROOM_2,BREAK_ROOM_2_WINDOW_4,BREAK_ROOM_2_REFERENCEPOINT1,4.1995E-003
 Sky Daylight Factors,Clear Sky,01/01,LOBBY_3_DAYLIGHT,LOBBY_3,LOBBY_3_WINDOW_1,LOBBY_3_REFERENCEPOINT1,0.0000
 Sky Daylight Factors,Clear Turbid Sky,01/01,LOBBY_3_DAYLIGHT,LOBBY_3,LOBBY_3_WINDOW_1,LOBBY_3_REFERENCEPOINT1,0.0000
 Sky Daylight Factors,Intermediate Sky,01/01,LOBBY_3_DAYLIGHT,LOBBY_3,LOBBY_3_WINDOW_1,LOBBY_3_REFERENCEPOINT1,0.0000
 Sky Daylight Factors,Overcast Sky,01/01,LOBBY_3_DAYLIGHT,LOBBY_3,LOBBY_3_WINDOW_1,LOBBY_3_REFERENCEPOINT1,0.0000
 Sky Daylight Factors,Clear Sky,01/01,LOBBY_3_DAYLIGHT,LOBBY_3,LOBBY_3_WINDOW_2,LOBBY_3_REFERENCEPOINT1,3.0007E-003
 Sky Daylight Factors,Clear Turbid Sky,01/01,LOBBY_3_DAYLIGHT,LOBBY_3,LOBBY_3_WINDOW_2,LOBBY_3_REFERENCEPOINT1,2.8685E-003
 Sky Daylight Factors,Intermediate Sky,01/01,LOBBY_3_DAYLIGHT,LOBBY_3,LOBBY_3_WINDOW_2,LOBBY_3_REFERENCEPOINT1,3.2099E-003
 Sky Daylight Factors,Overcast Sky,01/01,LOBBY_3_DAYLIGHT,LOBBY_3,LOBBY_3_WINDOW_2,LOBBY_3_REFERENCEPOINT1,2.8535E-003
 Sky Daylight Factors,Clear Sky,01/01,LOBBY_3_DAYLIGHT,LOBBY_3,LOBBY_3_WINDOW_3,LOBBY_3_REFERENCEPOINT1,4.0696E-003
 Sky Daylight Factors,Clear Turbid Sky,01/01,LOBBY_3_DAYLIGHT,LOBBY_3,LOBBY_3_WINDOW_3,LOBBY_3_REFERENCEPOINT1,3.2572E-003
 Sky Daylight Factors,Intermediate Sky,01/01,LOBBY_3_DAYLIGHT,LOBBY_3,LOBBY_3_WINDOW_3,LOBBY_3_REFERENCEPOINT1,2.8914E-003
 Sky Daylight Factors,Overcast Sky,01/01,LOBBY_3_DAYLIGHT,LOBBY_3,LOBBY_3_WINDOW_3,LOBBY_3_REFERENCEPOINT1,4.1236E-003
 Sky Daylight Factors,Clear Sky,01/01,LOBBY_3_DAYLIGHT,LOBBY_3,LOBBY_3_WINDOW_4,LOBBY_3_REFERENCEPOINT1,0.0000
 Sky Daylight Factors,Clear Turbid Sky,01/01,LOBBY_3_DAYLIGHT,LOBBY_3,LOBBY_3_WINDOW_4,LOBBY_3_REFERENCEPOINT1,0.0000
 Sky Daylight Factors,Intermediate Sky,01/01,LOBBY_3_DAYLIGHT,LOBBY_3,LOBBY_3_WINDOW_4,LOBBY_3_REFERENCEPOINT1,0.0000
 Sky Daylight Factors,Overcast Sky,01/01,LOBBY_3_DAYLIGHT,LOBBY_3,LOBBY_3_WINDOW_4,LOBBY_3_REFERENCEPOINT1,0.0000
 Sky Daylight Factors,Clear Sky,01/01,OFFICE_OPEN_3_DAYLIGHT,OFFICE_OPEN_3,OFFICE_OPEN_3_WINDOW_1,OFFICE_OPEN_3_REFERENCEPOINT1,3.2182E-003
 Sky Daylight Factors,Clear Turbid Sky,01/01,OFFICE_OPEN_3_DAYLIGHT,OFFICE_OPEN_3,OFFICE_OPEN_3_WINDOW_1,OFFICE_OPEN_3_REFERENCEPOINT1,3.5677E-003
 Sky Daylight Factors,Intermediate Sky,01/01,OFFICE_OPEN_3_DAYLIGHT,OFFICE_OPEN_3,OFFICE_OPEN_3_WINDOW_1,OFFICE_OPEN_3_REFERENCEPOINT1,1.9694E-003
 Sky Daylight Factors,Overcast Sky,01/01,OFFICE_OPEN_3_DAYLIGHT,OFFICE_OPEN_3,OFFICE_OPEN_3_WINDOW_1,OFFICE_OPEN_3_REFERENCEPOINT1,8.6311E-004
 Sky Daylight Factors,Clear Sky,01/01,OFFICE_OPEN_3_DAYLIGHT,OFFICE_OPEN_3,OFFICE_OPEN_3_WINDOW_2,OFFICE_OPEN_3_REFERENCEPOINT1,0.0000
 Sky Daylight Factors,Clear Turbid Sky,01/01,OFFICE_OPEN_3_DAYLIGHT,OFFICE_OPEN_3,OFFICE_OPEN_3_WINDOW_2,OFFICE_OPEN_3_REFERENCEPOINT1,0.0000
 Sky Daylight Factors,Intermediate Sky,01/01,OFFICE_OPEN_3_DAYLIGHT,OFFICE_OPEN_3,OFFICE_OPEN_3_WINDOW_2,OFFICE_OPEN_3_REFERENCEPOINT1,0.0000
 Sky Daylight Factors,Overcast Sky,01/01,OFFICE_OPEN_3_DAYLIGHT,OFFICE_OPEN_3,OFFICE_OPEN_3_WINDOW_2,OFFICE_OPEN_3_REFERENCEPOINT1,0.0000
 Sky Daylight Factors,Clear Sky,01/01,OFFICE_OPEN_3_DAYLIGHT,OFFICE_OPEN_3,OFFICE_OPEN_3_WINDOW_3,OFFICE_OPEN_3_REFERENCEPOINT1,0.0000
 Sky Daylight Factors,Clear Turbid Sky,01/01,OFFICE_OPEN_3_DAYLIGHT,OFFICE_OPEN_3,OFFICE_OPEN_3_WINDOW_3,OFFICE_OPEN_3_REFERENCEPOINT1,0.0000
 Sky Daylight Factors,Intermediate Sky,01/01,OFFICE_OPEN_3_DAYLIGHT,OFFICE_OPEN_3,OFFICE_OPEN_3_WINDOW_3,OFFICE_OPEN_3_REFERENCEPOINT1,0.0000
 Sky Daylight Factors,Overcast Sky,01/01,OFFICE_OPEN_3_DAYLIGHT,OFFICE_OPEN_3,OFFICE_OPEN_3_WINDOW_3,OFFICE_OPEN_3_REFERENCEPOINT1,0.0000
 Sky Daylight Factors,Clear Sky,01/01,OFFICE_OPEN_3_DAYLIGHT,OFFICE_OPEN_3,OFFICE_OPEN_3_WINDOW_4,OFFICE_OPEN_3_REFERENCEPOINT1,4.5579E-003
 Sky Daylight Factors,Clear Turbid Sky,01/01,OFFICE_OPEN_3_DAYLIGHT,OFFICE_OPEN_3,OFFICE_OPEN_3_WINDOW_4,OFFICE_OPEN_3_REFERENCEPOINT1,4.2524E-003
 Sky Daylight Factors,Intermediate Sky,01/01,OFFICE_OPEN_3_DAYLIGHT,OFFICE_OPEN_3,OFFICE_OPEN_3_WINDOW_4,OFFICE_OPEN_3_REFERENCEPOINT1,4.2719E-003
 Sky Daylight Factors,Overcast Sky,01/01,OFFICE_OPEN_3_DAYLIGHT,OFFICE_OPEN_3,OFFICE_OPEN_3_WINDOW_4,OFFICE_OPEN_3_REFERENCEPOINT1,3.6153E-003
 Sky Daylight Factors,Clear Sky,01/01,OFFICE_PRIVATE_3_DAYLIGHT,OFFICE_PRIVATE_3,OFFICE_PRIVATE_3_WINDOW_1,OFFICE_PRIVATE_3_REFERENCEPOINT1,5.4615E-003
 Sky Daylight Factors,Clear Turbid Sky,01/01,OFFICE_PRIVATE_3_DAYLIGHT,OFFICE_PRIVATE_3,OFFICE_PRIVATE_3_WINDOW_1,OFFICE_PRIVATE_3_REFERENCEPOINT1,6.1222E-003
 Sky Daylight Factors,Intermediate Sky,01/01,OFFICE_PRIVATE_3_DAYLIGHT,OFFICE_PRIVATE_3,OFFICE_PRIVATE_3_WINDOW_1,OFFICE_PRIVATE_3_REFERENCEPOINT1,3.8879E-003
 Sky Daylight Factors,Overcast Sky,01/01,OFFICE_PRIVATE_3_DAYLIGHT,OFFICE_PRIVATE_3,OFFICE_PRIVATE_3_WINDOW_1,OFFICE_PRIVATE_3_REFERENCEPOINT1,2.1717E-003
 Sky Daylight Factors,Clear Sky,01/01,OFFICE_PRIVATE_3_DAYLIGHT,OFFICE_PRIVATE_3,OFFICE_PRIVATE_3_WINDOW_2,OFFICE_PRIVATE_3_REFERENCEPOINT1,7.1089E-003
 Sky Daylight Factors,Clear Turbid Sky,01/01,OFFICE_PRIVATE_3_DAYLIGHT,OFFICE_PRIVATE_3,OFFICE_PRIVATE_3_WINDOW_2,OFFICE_PRIVATE_3_REFERENCEPOINT1,6.6604E-003
 Sky Daylight Factors,Intermediate Sky,01/01,OFFICE_PRIVATE_3_DAYLIGHT,OFFICE_PRIVATE_3,OFFICE_PRIVATE_3_WINDOW_2,OFFICE_PRIVATE_3_REFERENCEPOINT1,6.7082E-003
 Sky Daylight Factors,Overcast Sky,01/01,OFFICE_PRIVATE_3_DAYLIGHT,OFFICE_PRIVATE_3,OFFICE_PRIVATE_3_WINDOW_2,OFFICE_PRIVATE_3_REFERENCEPOINT1,5.7958E-003
 Sky Daylight Factors,Clear Sky,01/01,OFFICE_PRIVATE_3_DAYLIGHT,OFFICE_PRIVATE_3,OFFICE_PRIVATE_3_WINDOW_3,OFFICE_PRIVATE_3_REFERENCEPOINT1,5.1737E-003
 Sky Daylight Factors,Clear Turbid Sky,01/01,OFFICE_PRIVATE_3_DAYLIGHT,OFFICE_PRIVATE_3,OFFICE_PRIVATE_3_WINDOW_3,OFFICE_PRIVATE_3_REFERENCEPOINT1,4.2091E-003
 Sky Daylight Factors,Intermediate Sky,01/01,OFFICE_PRIVATE_3_DAYLIGHT,OFFICE_PRIVATE_3,OFFICE_PRIVATE_3_WINDOW_3,OFFICE_PRIVATE_3_REFERENCEPOINT1,3.7748E-003
 Sky Daylight Factors,Overcast Sky,01/01,OFFICE_PRIVATE_3_DAYLIGHT,OFFICE_PRIVATE_3,OFFICE_PRIVATE_3_WINDOW_3,OFFICE_PRIVATE_3_REFERENCEPOINT1,5.2379E-003
 Sky Daylight Factors,Clear Sky,01/01,OFFICE_PRIVATE_3_DAYLIGHT,OFFICE_PRIVATE_3,OFFICE_PRIVATE_3_WINDOW_4,OFFICE_PRIVATE_3_REFERENCEPOINT1,3.1734E-003
 Sky Daylight Factors,Clear Turbid Sky,01/01,OFFICE_PRIVATE_3_DAYLIGHT,OFFICE_PRIVATE_3,OFFICE_PRIVATE_3_WINDOW_4,OFFICE_PRIVATE_3_REFERENCEPOINT1,2.9372E-003
 Sky Daylight Factors,Intermediate Sky,01/01,OFFICE_PRIVATE_3_DAYLIGHT,OFFICE_PRIVATE_3,OFFICE_PRIVATE_3_WINDOW_4,OFFICE_PRIVATE_3_REFERENCEPOINT1,3.7869E-003
 Sky Daylight Factors,Overcast Sky,01/01,OFFICE_PRIVATE_3_DAYLIGHT,OFFICE_PRIVATE_3,OFFICE_PRIVATE_3_WINDOW_4,OFFICE_PRIVATE_3_REFERENCEPOINT1,3.8168E-003
Environment:WarmupDays,  6
! <Warmup Convergence Information>,Zone Name,Environment Type/Name,Average Warmup Temperature Difference {deltaC},Std Dev Warmup Temperature Difference {deltaC},Max Temperature Pass/Fail Convergence,Min Temperature Pass/Fail Convergence,Average Warmup Load Difference {W},Std Dev Warmup Load Difference {W},Heating Load Pass/Fail Convergence,Cooling Load Pass/Fail Convergence
 Warmup Convergence Information,LOBBY_0,RunPeriod: YEAR ROUND RUN PERIOD,0.1175533350,0.1855441801,Pass,Pass,6.8852522839E-003,1.0957392496E-002,Pass,Pass
 Warmup Convergence Information,CONFERENCE_0,RunPeriod: YEAR ROUND RUN PERIOD,0.1312900434,0.1980206268,Pass,Pass,7.7359019127E-003,1.1626566821E-002,Pass,Pass
 Warmup Convergence Information,MECHANICAL_0,RunPeriod: YEAR ROUND RUN PERIOD,0.1326886924,0.2004336391,Pass,Pass,7.6871254730E-003,1.1611922501E-002,Pass,Pass
 Warmup Convergence Information,OFFICE_PRIVATE_0,RunPeriod: YEAR ROUND RUN PERIOD,0.1520915242,0.2167685697,Pass,Pass,8.9897176377E-003,1.2777144254E-002,Pass,Pass
 Warmup Convergence Information,LOBBY_1,RunPeriod: YEAR ROUND RUN PERIOD,0.1137412561,0.1814746770,Pass,Pass,6.5358359920E-003,1.0740589416E-002,Pass,Pass
 Warmup Convergence Information,BREAK_ROOM_1,RunPeriod: YEAR ROUND RUN PERIOD,0.1353231629,0.2034168326,Pass,Pass,8.0329308536E-003,1.2035096370E-002,Pass,Pass
 Warmup Convergence Information,OFFICE_PRIVATE_1,RunPeriod: YEAR ROUND RUN PERIOD,0.1364908862,0.1986309045,Pass,Pass,7.8452062610E-003,1.1410571337E-002,Pass,Pass
 Warmup Convergence Information,BREAK_ROOM_2,RunPeriod: YEAR ROUND RUN PERIOD,0.1255333778,0.1903092409,Pass,Pass,7.3623242518E-003,1.1339475975E-002,Pass,Pass
 Warmup Convergence Information,MECHANICAL_2,RunPeriod: YEAR ROUND RUN PERIOD,0.1229232472,0.1905662782,Pass,Pass,7.0267789672E-003,1.0960110099E-002,Pass,Pass
 Warmup Convergence Information,LOBBY_3,RunPeriod: YEAR ROUND RUN PERIOD,0.1203957456,0.1869328506,Pass,Pass,6.9754947183E-003,1.0908228465E-002,Pass,Pass
 Warmup Convergence Information,OFFICE_OPEN_3,RunPeriod: YEAR ROUND RUN PERIOD,0.1178545370,0.1856782334,Pass,Pass,6.8815995661E-003,1.0978378855E-002,Pass,Pass
 Warmup Convergence Information,OFFICE_PRIVATE_3,RunPeriod: YEAR ROUND RUN PERIOD,0.1412184674,0.2088330389,Pass,Pass,8.2209231012E-003,1.2123645330E-002,Pass,Pass
 Warmup Convergence Information,STORAGE_3,RunPeriod: YEAR ROUND RUN PERIOD,0.1784669517,0.2393146764,Pass,Pass,1.0179958011E-002,1.3621047611E-002,Pass,Pass
 Warmup Convergence Information,MECHANICAL_4,RunPeriod: YEAR ROUND RUN PERIOD,0.1390881076,0.2048272459,Pass,Pass,7.9259418845E-003,1.1659786901E-002,Pass,Pass
 Warmup Convergence Information,STORAGE_4,RunPeriod: YEAR ROUND RUN PERIOD,0.1554537270,0.2185309087,Pass,Pass,8.9436244402E-003,1.2496186828E-002,Pass,Pass
! <Program Control Information:Threads/Parallel Sims>, Threading Supported,Maximum Number of Threads, Env Set Threads (OMP_NUM_THREADS), EP Env Set Threads (EP_OMP_NUM_THREADS), IDF Set Threads, Number of Threads Used (Interior Radiant Exchange), Number Nominal Surfaces, Number Parallel Sims
Program Control:Threads/Parallel Sims, No,1, N/A, N/A, N/A, N/A, N/A, N/A
End of Data
