Program Version,EnergyPlus, Version 24.2.0-94a887817b, YMD=2025.11.03 23:59
! This file shows details about the branches, nodes, and other
! elements of the flow connections.
! This file is intended for use in "debugging" potential problems
! that may also be detected by the program, but may be more easily
! identified by "eye".
! This file is also intended to support software which draws a
! schematic diagram of the HVAC system.
! ===============================================================
! #Nodes,<Number of Unique Nodes>
 #Nodes,1100
! <Node>,<NodeNumber>,<Node Name>,<Node Fluid Type>,<# Times Node Referenced After Definition>
 Node,1,LOBBY_0_Z1_ADUOUTLET,Air,4
 Node,2,CONFERENCE_0_Z2_ADUOUTLET,Air,4
 Node,3,BREAK_ROOM_0_Z3_ADUOUTLET,Air,4
 Node,4,MECHANICAL_0_Z4_ADUOUTLET,Air,4
 Node,5,OFFICE_OPEN_0_Z5_ADUOUTLET,Air,4
 Node,6,OFFICE_PRIVATE_0_Z6_ADUOUTLET,Air,4
 Node,7,STORAGE_0_Z7_ADUOUTLET,Air,4
 Node,8,OFFICE_OPEN_0_2_Z8_ADUOUTLET,Air,4
 Node,9,OFFICE_OPEN_0_3_Z9_ADUOUTLET,Air,4
 Node,10,OFFICE_OPEN_0_4_Z10_ADUOUTLET,Air,4
 Node,11,OFFICE_OPEN_0_5_Z11_ADUOUTLET,Air,4
 Node,12,OFFICE_OPEN_0_6_Z12_ADUOUTLET,Air,4
 Node,13,OFFICE_OPEN_0_7_Z13_ADUOUTLET,Air,4
 Node,14,OFFICE_OPEN_0_8_Z14_ADUOUTLET,Air,4
 Node,15,OFFICE_OPEN_0_9_Z15_ADUOUTLET,Air,4
 Node,16,OFFICE_OPEN_0_10_Z16_ADUOUTLET,Air,4
 Node,17,OFFICE_OPEN_0_11_Z17_ADUOUTLET,Air,4
 Node,18,OFFICE_OPEN_0_12_Z18_ADUOUTLET,Air,4
 Node,19,OFFICE_OPEN_0_13_Z19_ADUOUTLET,Air,4
 Node,20,OFFICE_OPEN_0_14_Z20_ADUOUTLET,Air,4
 Node,21,LOBBY_1_Z21_ADUOUTLET,Air,4
 Node,22,CONFERENCE_1_Z22_ADUOUTLET,Air,4
 Node,23,BREAK_ROOM_1_Z23_ADUOUTLET,Air,4
 Node,24,MECHANICAL_1_Z24_ADUOUTLET,Air,4
 Node,25,OFFICE_OPEN_1_Z25_ADUOUTLET,Air,4
 Node,26,OFFICE_PRIVATE_1_Z26_ADUOUTLET,Air,4
 Node,27,STORAGE_1_Z27_ADUOUTLET,Air,4
 Node,28,OFFICE_OPEN_1_2_Z28_ADUOUTLET,Air,4
 Node,29,OFFICE_OPEN_1_3_Z29_ADUOUTLET,Air,4
 Node,30,OFFICE_OPEN_1_4_Z30_ADUOUTLET,Air,4
 Node,31,OFFICE_OPEN_1_5_Z31_ADUOUTLET,Air,4
 Node,32,OFFICE_OPEN_1_6_Z32_ADUOUTLET,Air,4
 Node,33,OFFICE_OPEN_1_7_Z33_ADUOUTLET,Air,4
 Node,34,OFFICE_OPEN_1_8_Z34_ADUOUTLET,Air,4
 Node,35,OFFICE_OPEN_1_9_Z35_ADUOUTLET,Air,4
 Node,36,OFFICE_OPEN_1_10_Z36_ADUOUTLET,Air,4
 Node,37,OFFICE_OPEN_1_11_Z37_ADUOUTLET,Air,4
 Node,38,OFFICE_OPEN_1_12_Z38_ADUOUTLET,Air,4
 Node,39,OFFICE_OPEN_1_13_Z39_ADUOUTLET,Air,4
 Node,40,OFFICE_OPEN_1_14_Z40_ADUOUTLET,Air,4
 Node,41,LOBBY_2_Z41_ADUOUTLET,Air,4
 Node,42,CONFERENCE_2_Z42_ADUOUTLET,Air,4
 Node,43,BREAK_ROOM_2_Z43_ADUOUTLET,Air,4
 Node,44,MECHANICAL_2_Z44_ADUOUTLET,Air,4
 Node,45,OFFICE_OPEN_2_Z45_ADUOUTLET,Air,4
 Node,46,OFFICE_PRIVATE_2_Z46_ADUOUTLET,Air,4
 Node,47,STORAGE_2_Z47_ADUOUTLET,Air,4
 Node,48,OFFICE_OPEN_2_2_Z48_ADUOUTLET,Air,4
 Node,49,OFFICE_OPEN_2_3_Z49_ADUOUTLET,Air,4
 Node,50,OFFICE_OPEN_2_4_Z50_ADUOUTLET,Air,4
 Node,51,OFFICE_OPEN_2_5_Z51_ADUOUTLET,Air,4
 Node,52,OFFICE_OPEN_2_6_Z52_ADUOUTLET,Air,4
 Node,53,OFFICE_OPEN_2_7_Z53_ADUOUTLET,Air,4
 Node,54,OFFICE_OPEN_2_8_Z54_ADUOUTLET,Air,4
 Node,55,OFFICE_OPEN_2_9_Z55_ADUOUTLET,Air,4
 Node,56,OFFICE_OPEN_2_10_Z56_ADUOUTLET,Air,4
 Node,57,OFFICE_OPEN_2_11_Z57_ADUOUTLET,Air,4
 Node,58,OFFICE_OPEN_2_12_Z58_ADUOUTLET,Air,4
 Node,59,OFFICE_OPEN_2_13_Z59_ADUOUTLET,Air,4
 Node,60,OFFICE_OPEN_2_14_Z60_ADUOUTLET,Air,4
 Node,61,LOBBY_3_Z61_ADUOUTLET,Air,4
 Node,62,CONFERENCE_3_Z62_ADUOUTLET,Air,4
 Node,63,BREAK_ROOM_3_Z63_ADUOUTLET,Air,4
 Node,64,MECHANICAL_3_Z64_ADUOUTLET,Air,4
 Node,65,OFFICE_OPEN_3_Z65_ADUOUTLET,Air,4
 Node,66,OFFICE_PRIVATE_3_Z66_ADUOUTLET,Air,4
 Node,67,STORAGE_3_Z67_ADUOUTLET,Air,4
 Node,68,OFFICE_OPEN_3_2_Z68_ADUOUTLET,Air,4
 Node,69,OFFICE_OPEN_3_3_Z69_ADUOUTLET,Air,4
 Node,70,OFFICE_OPEN_3_4_Z70_ADUOUTLET,Air,4
 Node,71,OFFICE_OPEN_3_5_Z71_ADUOUTLET,Air,4
 Node,72,OFFICE_OPEN_3_6_Z72_ADUOUTLET,Air,4
 Node,73,OFFICE_OPEN_3_7_Z73_ADUOUTLET,Air,4
 Node,74,OFFICE_OPEN_3_8_Z74_ADUOUTLET,Air,4
 Node,75,OFFICE_OPEN_3_9_Z75_ADUOUTLET,Air,4
 Node,76,OFFICE_OPEN_3_10_Z76_ADUOUTLET,Air,4
 Node,77,OFFICE_OPEN_3_11_Z77_ADUOUTLET,Air,4
 Node,78,OFFICE_OPEN_3_12_Z78_ADUOUTLET,Air,4
 Node,79,OFFICE_OPEN_3_13_Z79_ADUOUTLET,Air,4
 Node,80,OFFICE_OPEN_3_14_Z80_ADUOUTLET,Air,4
 Node,81,LOBBY_4_Z81_ADUOUTLET,Air,4
 Node,82,CONFERENCE_4_Z82_ADUOUTLET,Air,4
 Node,83,BREAK_ROOM_4_Z83_ADUOUTLET,Air,4
 Node,84,MECHANICAL_4_Z84_ADUOUTLET,Air,4
 Node,85,OFFICE_OPEN_4_Z85_ADUOUTLET,Air,4
 Node,86,OFFICE_PRIVATE_4_Z86_ADUOUTLET,Air,4
 Node,87,STORAGE_4_Z87_ADUOUTLET,Air,4
 Node,88,OFFICE_OPEN_4_2_Z88_ADUOUTLET,Air,4
 Node,89,OFFICE_OPEN_4_3_Z89_ADUOUTLET,Air,4
 Node,90,OFFICE_OPEN_4_4_Z90_ADUOUTLET,Air,4
 Node,91,OFFICE_OPEN_4_5_Z91_ADUOUTLET,Air,4
 Node,92,OFFICE_OPEN_4_6_Z92_ADUOUTLET,Air,4
 Node,93,OFFICE_OPEN_4_7_Z93_ADUOUTLET,Air,4
 Node,94,OFFICE_OPEN_4_8_Z94_ADUOUTLET,Air,4
 Node,95,OFFICE_OPEN_4_9_Z95_ADUOUTLET,Air,4
 Node,96,OFFICE_OPEN_4_10_Z96_ADUOUTLET,Air,4
 Node,97,OFFICE_OPEN_4_11_Z97_ADUOUTLET,Air,4
 Node,98,OFFICE_OPEN_4_12_Z98_ADUOUTLET,Air,4
 Node,99,OFFICE_OPEN_4_13_Z99_ADUOUTLET,Air,4
 Node,100,OFFICE_OPEN_4_14_Z100_ADUOUTLET,Air,4
 Node,101,LOBBY_0_Z1_SUPPLYINLET,Air,3
 Node,102,LOBBY_0_Z1_COOLC-HEATCNODE,Air,6
 Node,103,LOBBY_0_Z1_HEATC-FANNODE,Air,5
 Node,104,LOBBY_0_Z1_SUPPLYEQUIPMENTOUTLETNODE,Air,3
 Node,105,CONFERENCE_0_Z2_SUPPLYINLET,Air,3
 Node,106,CONFERENCE_0_Z2_COOLC-HEATCNODE,Air,6
 Node,107,CONFERENCE_0_Z2_HEATC-FANNODE,Air,5
 Node,108,CONFERENCE_0_Z2_SUPPLYEQUIPMENTOUTLETNODE,Air,3
 Node,109,BREAK_ROOM_0_Z3_SUPPLYINLET,Air,3
 Node,110,BREAK_ROOM_0_Z3_COOLC-HEATCNODE,Air,6
 Node,111,BREAK_ROOM_0_Z3_HEATC-FANNODE,Air,5
 Node,112,BREAK_ROOM_0_Z3_SUPPLYEQUIPMENTOUTLETNODE,Air,3
 Node,113,MECHANICAL_0_Z4_SUPPLYINLET,Air,3
 Node,114,MECHANICAL_0_Z4_COOLC-HEATCNODE,Air,6
 Node,115,MECHANICAL_0_Z4_HEATC-FANNODE,Air,5
 Node,116,MECHANICAL_0_Z4_SUPPLYEQUIPMENTOUTLETNODE,Air,3
 Node,117,OFFICE_OPEN_0_Z5_SUPPLYINLET,Air,3
 Node,118,OFFICE_OPEN_0_Z5_COOLC-HEATCNODE,Air,6
 Node,119,OFFICE_OPEN_0_Z5_HEATC-FANNODE,Air,5
 Node,120,OFFICE_OPEN_0_Z5_SUPPLYEQUIPMENTOUTLETNODE,Air,3
 Node,121,OFFICE_PRIVATE_0_Z6_SUPPLYINLET,Air,3
 Node,122,OFFICE_PRIVATE_0_Z6_COOLC-HEATCNODE,Air,6
 Node,123,OFFICE_PRIVATE_0_Z6_HEATC-FANNODE,Air,5
 Node,124,OFFICE_PRIVATE_0_Z6_SUPPLYEQUIPMENTOUTLETNODE,Air,3
 Node,125,STORAGE_0_Z7_SUPPLYINLET,Air,3
 Node,126,STORAGE_0_Z7_COOLC-HEATCNODE,Air,6
 Node,127,STORAGE_0_Z7_HEATC-FANNODE,Air,5
 Node,128,STORAGE_0_Z7_SUPPLYEQUIPMENTOUTLETNODE,Air,3
 Node,129,OFFICE_OPEN_0_2_Z8_SUPPLYINLET,Air,3
 Node,130,OFFICE_OPEN_0_2_Z8_COOLC-HEATCNODE,Air,6
 Node,131,OFFICE_OPEN_0_2_Z8_HEATC-FANNODE,Air,5
 Node,132,OFFICE_OPEN_0_2_Z8_SUPPLYEQUIPMENTOUTLETNODE,Air,3
 Node,133,OFFICE_OPEN_0_3_Z9_SUPPLYINLET,Air,3
 Node,134,OFFICE_OPEN_0_3_Z9_COOLC-HEATCNODE,Air,6
 Node,135,OFFICE_OPEN_0_3_Z9_HEATC-FANNODE,Air,5
 Node,136,OFFICE_OPEN_0_3_Z9_SUPPLYEQUIPMENTOUTLETNODE,Air,3
 Node,137,OFFICE_OPEN_0_4_Z10_SUPPLYINLET,Air,3
 Node,138,OFFICE_OPEN_0_4_Z10_COOLC-HEATCNODE,Air,6
 Node,139,OFFICE_OPEN_0_4_Z10_HEATC-FANNODE,Air,5
 Node,140,OFFICE_OPEN_0_4_Z10_SUPPLYEQUIPMENTOUTLETNODE,Air,3
 Node,141,OFFICE_OPEN_0_5_Z11_SUPPLYINLET,Air,3
 Node,142,OFFICE_OPEN_0_5_Z11_COOLC-HEATCNODE,Air,6
 Node,143,OFFICE_OPEN_0_5_Z11_HEATC-FANNODE,Air,5
 Node,144,OFFICE_OPEN_0_5_Z11_SUPPLYEQUIPMENTOUTLETNODE,Air,3
 Node,145,OFFICE_OPEN_0_6_Z12_SUPPLYINLET,Air,3
 Node,146,OFFICE_OPEN_0_6_Z12_COOLC-HEATCNODE,Air,6
 Node,147,OFFICE_OPEN_0_6_Z12_HEATC-FANNODE,Air,5
 Node,148,OFFICE_OPEN_0_6_Z12_SUPPLYEQUIPMENTOUTLETNODE,Air,3
 Node,149,OFFICE_OPEN_0_7_Z13_SUPPLYINLET,Air,3
 Node,150,OFFICE_OPEN_0_7_Z13_COOLC-HEATCNODE,Air,6
 Node,151,OFFICE_OPEN_0_7_Z13_HEATC-FANNODE,Air,5
 Node,152,OFFICE_OPEN_0_7_Z13_SUPPLYEQUIPMENTOUTLETNODE,Air,3
 Node,153,OFFICE_OPEN_0_8_Z14_SUPPLYINLET,Air,3
 Node,154,OFFICE_OPEN_0_8_Z14_COOLC-HEATCNODE,Air,6
 Node,155,OFFICE_OPEN_0_8_Z14_HEATC-FANNODE,Air,5
 Node,156,OFFICE_OPEN_0_8_Z14_SUPPLYEQUIPMENTOUTLETNODE,Air,3
 Node,157,OFFICE_OPEN_0_9_Z15_SUPPLYINLET,Air,3
 Node,158,OFFICE_OPEN_0_9_Z15_COOLC-HEATCNODE,Air,6
 Node,159,OFFICE_OPEN_0_9_Z15_HEATC-FANNODE,Air,5
 Node,160,OFFICE_OPEN_0_9_Z15_SUPPLYEQUIPMENTOUTLETNODE,Air,3
 Node,161,OFFICE_OPEN_0_10_Z16_SUPPLYINLET,Air,3
 Node,162,OFFICE_OPEN_0_10_Z16_COOLC-HEATCNODE,Air,6
 Node,163,OFFICE_OPEN_0_10_Z16_HEATC-FANNODE,Air,5
 Node,164,OFFICE_OPEN_0_10_Z16_SUPPLYEQUIPMENTOUTLETNODE,Air,3
 Node,165,OFFICE_OPEN_0_11_Z17_SUPPLYINLET,Air,3
 Node,166,OFFICE_OPEN_0_11_Z17_COOLC-HEATCNODE,Air,6
 Node,167,OFFICE_OPEN_0_11_Z17_HEATC-FANNODE,Air,5
 Node,168,OFFICE_OPEN_0_11_Z17_SUPPLYEQUIPMENTOUTLETNODE,Air,3
 Node,169,OFFICE_OPEN_0_12_Z18_SUPPLYINLET,Air,3
 Node,170,OFFICE_OPEN_0_12_Z18_COOLC-HEATCNODE,Air,6
 Node,171,OFFICE_OPEN_0_12_Z18_HEATC-FANNODE,Air,5
 Node,172,OFFICE_OPEN_0_12_Z18_SUPPLYEQUIPMENTOUTLETNODE,Air,3
 Node,173,OFFICE_OPEN_0_13_Z19_SUPPLYINLET,Air,3
 Node,174,OFFICE_OPEN_0_13_Z19_COOLC-HEATCNODE,Air,6
 Node,175,OFFICE_OPEN_0_13_Z19_HEATC-FANNODE,Air,5
 Node,176,OFFICE_OPEN_0_13_Z19_SUPPLYEQUIPMENTOUTLETNODE,Air,3
 Node,177,OFFICE_OPEN_0_14_Z20_SUPPLYINLET,Air,3
 Node,178,OFFICE_OPEN_0_14_Z20_COOLC-HEATCNODE,Air,6
 Node,179,OFFICE_OPEN_0_14_Z20_HEATC-FANNODE,Air,5
 Node,180,OFFICE_OPEN_0_14_Z20_SUPPLYEQUIPMENTOUTLETNODE,Air,3
 Node,181,LOBBY_1_Z21_SUPPLYINLET,Air,3
 Node,182,LOBBY_1_Z21_COOLC-HEATCNODE,Air,6
 Node,183,LOBBY_1_Z21_HEATC-FANNODE,Air,5
 Node,184,LOBBY_1_Z21_SUPPLYEQUIPMENTOUTLETNODE,Air,3
 Node,185,CONFERENCE_1_Z22_SUPPLYINLET,Air,3
 Node,186,CONFERENCE_1_Z22_COOLC-HEATCNODE,Air,6
 Node,187,CONFERENCE_1_Z22_HEATC-FANNODE,Air,5
 Node,188,CONFERENCE_1_Z22_SUPPLYEQUIPMENTOUTLETNODE,Air,3
 Node,189,BREAK_ROOM_1_Z23_SUPPLYINLET,Air,3
 Node,190,BREAK_ROOM_1_Z23_COOLC-HEATCNODE,Air,6
 Node,191,BREAK_ROOM_1_Z23_HEATC-FANNODE,Air,5
 Node,192,BREAK_ROOM_1_Z23_SUPPLYEQUIPMENTOUTLETNODE,Air,3
 Node,193,MECHANICAL_1_Z24_SUPPLYINLET,Air,3
 Node,194,MECHANICAL_1_Z24_COOLC-HEATCNODE,Air,6
 Node,195,MECHANICAL_1_Z24_HEATC-FANNODE,Air,5
 Node,196,MECHANICAL_1_Z24_SUPPLYEQUIPMENTOUTLETNODE,Air,3
 Node,197,OFFICE_OPEN_1_Z25_SUPPLYINLET,Air,3
 Node,198,OFFICE_OPEN_1_Z25_COOLC-HEATCNODE,Air,6
 Node,199,OFFICE_OPEN_1_Z25_HEATC-FANNODE,Air,5
 Node,200,OFFICE_OPEN_1_Z25_SUPPLYEQUIPMENTOUTLETNODE,Air,3
 Node,201,OFFICE_PRIVATE_1_Z26_SUPPLYINLET,Air,3
 Node,202,OFFICE_PRIVATE_1_Z26_COOLC-HEATCNODE,Air,6
 Node,203,OFFICE_PRIVATE_1_Z26_HEATC-FANNODE,Air,5
 Node,204,OFFICE_PRIVATE_1_Z26_SUPPLYEQUIPMENTOUTLETNODE,Air,3
 Node,205,STORAGE_1_Z27_SUPPLYINLET,Air,3
 Node,206,STORAGE_1_Z27_COOLC-HEATCNODE,Air,6
 Node,207,STORAGE_1_Z27_HEATC-FANNODE,Air,5
 Node,208,STORAGE_1_Z27_SUPPLYEQUIPMENTOUTLETNODE,Air,3
 Node,209,OFFICE_OPEN_1_2_Z28_SUPPLYINLET,Air,3
 Node,210,OFFICE_OPEN_1_2_Z28_COOLC-HEATCNODE,Air,6
 Node,211,OFFICE_OPEN_1_2_Z28_HEATC-FANNODE,Air,5
 Node,212,OFFICE_OPEN_1_2_Z28_SUPPLYEQUIPMENTOUTLETNODE,Air,3
 Node,213,OFFICE_OPEN_1_3_Z29_SUPPLYINLET,Air,3
 Node,214,OFFICE_OPEN_1_3_Z29_COOLC-HEATCNODE,Air,6
 Node,215,OFFICE_OPEN_1_3_Z29_HEATC-FANNODE,Air,5
 Node,216,OFFICE_OPEN_1_3_Z29_SUPPLYEQUIPMENTOUTLETNODE,Air,3
 Node,217,OFFICE_OPEN_1_4_Z30_SUPPLYINLET,Air,3
 Node,218,OFFICE_OPEN_1_4_Z30_COOLC-HEATCNODE,Air,6
 Node,219,OFFICE_OPEN_1_4_Z30_HEATC-FANNODE,Air,5
 Node,220,OFFICE_OPEN_1_4_Z30_SUPPLYEQUIPMENTOUTLETNODE,Air,3
 Node,221,OFFICE_OPEN_1_5_Z31_SUPPLYINLET,Air,3
 Node,222,OFFICE_OPEN_1_5_Z31_COOLC-HEATCNODE,Air,6
 Node,223,OFFICE_OPEN_1_5_Z31_HEATC-FANNODE,Air,5
 Node,224,OFFICE_OPEN_1_5_Z31_SUPPLYEQUIPMENTOUTLETNODE,Air,3
 Node,225,OFFICE_OPEN_1_6_Z32_SUPPLYINLET,Air,3
 Node,226,OFFICE_OPEN_1_6_Z32_COOLC-HEATCNODE,Air,6
 Node,227,OFFICE_OPEN_1_6_Z32_HEATC-FANNODE,Air,5
 Node,228,OFFICE_OPEN_1_6_Z32_SUPPLYEQUIPMENTOUTLETNODE,Air,3
 Node,229,OFFICE_OPEN_1_7_Z33_SUPPLYINLET,Air,3
 Node,230,OFFICE_OPEN_1_7_Z33_COOLC-HEATCNODE,Air,6
 Node,231,OFFICE_OPEN_1_7_Z33_HEATC-FANNODE,Air,5
 Node,232,OFFICE_OPEN_1_7_Z33_SUPPLYEQUIPMENTOUTLETNODE,Air,3
 Node,233,OFFICE_OPEN_1_8_Z34_SUPPLYINLET,Air,3
 Node,234,OFFICE_OPEN_1_8_Z34_COOLC-HEATCNODE,Air,6
 Node,235,OFFICE_OPEN_1_8_Z34_HEATC-FANNODE,Air,5
 Node,236,OFFICE_OPEN_1_8_Z34_SUPPLYEQUIPMENTOUTLETNODE,Air,3
 Node,237,OFFICE_OPEN_1_9_Z35_SUPPLYINLET,Air,3
 Node,238,OFFICE_OPEN_1_9_Z35_COOLC-HEATCNODE,Air,6
 Node,239,OFFICE_OPEN_1_9_Z35_HEATC-FANNODE,Air,5
 Node,240,OFFICE_OPEN_1_9_Z35_SUPPLYEQUIPMENTOUTLETNODE,Air,3
 Node,241,OFFICE_OPEN_1_10_Z36_SUPPLYINLET,Air,3
 Node,242,OFFICE_OPEN_1_10_Z36_COOLC-HEATCNODE,Air,6
 Node,243,OFFICE_OPEN_1_10_Z36_HEATC-FANNODE,Air,5
 Node,244,OFFICE_OPEN_1_10_Z36_SUPPLYEQUIPMENTOUTLETNODE,Air,3
 Node,245,OFFICE_OPEN_1_11_Z37_SUPPLYINLET,Air,3
 Node,246,OFFICE_OPEN_1_11_Z37_COOLC-HEATCNODE,Air,6
 Node,247,OFFICE_OPEN_1_11_Z37_HEATC-FANNODE,Air,5
 Node,248,OFFICE_OPEN_1_11_Z37_SUPPLYEQUIPMENTOUTLETNODE,Air,3
 Node,249,OFFICE_OPEN_1_12_Z38_SUPPLYINLET,Air,3
 Node,250,OFFICE_OPEN_1_12_Z38_COOLC-HEATCNODE,Air,6
 Node,251,OFFICE_OPEN_1_12_Z38_HEATC-FANNODE,Air,5
 Node,252,OFFICE_OPEN_1_12_Z38_SUPPLYEQUIPMENTOUTLETNODE,Air,3
 Node,253,OFFICE_OPEN_1_13_Z39_SUPPLYINLET,Air,3
 Node,254,OFFICE_OPEN_1_13_Z39_COOLC-HEATCNODE,Air,6
 Node,255,OFFICE_OPEN_1_13_Z39_HEATC-FANNODE,Air,5
 Node,256,OFFICE_OPEN_1_13_Z39_SUPPLYEQUIPMENTOUTLETNODE,Air,3
 Node,257,OFFICE_OPEN_1_14_Z40_SUPPLYINLET,Air,3
 Node,258,OFFICE_OPEN_1_14_Z40_COOLC-HEATCNODE,Air,6
 Node,259,OFFICE_OPEN_1_14_Z40_HEATC-FANNODE,Air,5
 Node,260,OFFICE_OPEN_1_14_Z40_SUPPLYEQUIPMENTOUTLETNODE,Air,3
 Node,261,LOBBY_2_Z41_SUPPLYINLET,Air,3
 Node,262,LOBBY_2_Z41_COOLC-HEATCNODE,Air,6
 Node,263,LOBBY_2_Z41_HEATC-FANNODE,Air,5
 Node,264,LOBBY_2_Z41_SUPPLYEQUIPMENTOUTLETNODE,Air,3
 Node,265,CONFERENCE_2_Z42_SUPPLYINLET,Air,3
 Node,266,CONFERENCE_2_Z42_COOLC-HEATCNODE,Air,6
 Node,267,CONFERENCE_2_Z42_HEATC-FANNODE,Air,5
 Node,268,CONFERENCE_2_Z42_SUPPLYEQUIPMENTOUTLETNODE,Air,3
 Node,269,BREAK_ROOM_2_Z43_SUPPLYINLET,Air,3
 Node,270,BREAK_ROOM_2_Z43_COOLC-HEATCNODE,Air,6
 Node,271,BREAK_ROOM_2_Z43_HEATC-FANNODE,Air,5
 Node,272,BREAK_ROOM_2_Z43_SUPPLYEQUIPMENTOUTLETNODE,Air,3
 Node,273,MECHANICAL_2_Z44_SUPPLYINLET,Air,3
 Node,274,MECHANICAL_2_Z44_COOLC-HEATCNODE,Air,6
 Node,275,MECHANICAL_2_Z44_HEATC-FANNODE,Air,5
 Node,276,MECHANICAL_2_Z44_SUPPLYEQUIPMENTOUTLETNODE,Air,3
 Node,277,OFFICE_OPEN_2_Z45_SUPPLYINLET,Air,3
 Node,278,OFFICE_OPEN_2_Z45_COOLC-HEATCNODE,Air,6
 Node,279,OFFICE_OPEN_2_Z45_HEATC-FANNODE,Air,5
 Node,280,OFFICE_OPEN_2_Z45_SUPPLYEQUIPMENTOUTLETNODE,Air,3
 Node,281,OFFICE_PRIVATE_2_Z46_SUPPLYINLET,Air,3
 Node,282,OFFICE_PRIVATE_2_Z46_COOLC-HEATCNODE,Air,6
 Node,283,OFFICE_PRIVATE_2_Z46_HEATC-FANNODE,Air,5
 Node,284,OFFICE_PRIVATE_2_Z46_SUPPLYEQUIPMENTOUTLETNODE,Air,3
 Node,285,STORAGE_2_Z47_SUPPLYINLET,Air,3
 Node,286,STORAGE_2_Z47_COOLC-HEATCNODE,Air,6
 Node,287,STORAGE_2_Z47_HEATC-FANNODE,Air,5
 Node,288,STORAGE_2_Z47_SUPPLYEQUIPMENTOUTLETNODE,Air,3
 Node,289,OFFICE_OPEN_2_2_Z48_SUPPLYINLET,Air,3
 Node,290,OFFICE_OPEN_2_2_Z48_COOLC-HEATCNODE,Air,6
 Node,291,OFFICE_OPEN_2_2_Z48_HEATC-FANNODE,Air,5
 Node,292,OFFICE_OPEN_2_2_Z48_SUPPLYEQUIPMENTOUTLETNODE,Air,3
 Node,293,OFFICE_OPEN_2_3_Z49_SUPPLYINLET,Air,3
 Node,294,OFFICE_OPEN_2_3_Z49_COOLC-HEATCNODE,Air,6
 Node,295,OFFICE_OPEN_2_3_Z49_HEATC-FANNODE,Air,5
 Node,296,OFFICE_OPEN_2_3_Z49_SUPPLYEQUIPMENTOUTLETNODE,Air,3
 Node,297,OFFICE_OPEN_2_4_Z50_SUPPLYINLET,Air,3
 Node,298,OFFICE_OPEN_2_4_Z50_COOLC-HEATCNODE,Air,6
 Node,299,OFFICE_OPEN_2_4_Z50_HEATC-FANNODE,Air,5
 Node,300,OFFICE_OPEN_2_4_Z50_SUPPLYEQUIPMENTOUTLETNODE,Air,3
 Node,301,OFFICE_OPEN_2_5_Z51_SUPPLYINLET,Air,3
 Node,302,OFFICE_OPEN_2_5_Z51_COOLC-HEATCNODE,Air,6
 Node,303,OFFICE_OPEN_2_5_Z51_HEATC-FANNODE,Air,5
 Node,304,OFFICE_OPEN_2_5_Z51_SUPPLYEQUIPMENTOUTLETNODE,Air,3
 Node,305,OFFICE_OPEN_2_6_Z52_SUPPLYINLET,Air,3
 Node,306,OFFICE_OPEN_2_6_Z52_COOLC-HEATCNODE,Air,6
 Node,307,OFFICE_OPEN_2_6_Z52_HEATC-FANNODE,Air,5
 Node,308,OFFICE_OPEN_2_6_Z52_SUPPLYEQUIPMENTOUTLETNODE,Air,3
 Node,309,OFFICE_OPEN_2_7_Z53_SUPPLYINLET,Air,3
 Node,310,OFFICE_OPEN_2_7_Z53_COOLC-HEATCNODE,Air,6
 Node,311,OFFICE_OPEN_2_7_Z53_HEATC-FANNODE,Air,5
 Node,312,OFFICE_OPEN_2_7_Z53_SUPPLYEQUIPMENTOUTLETNODE,Air,3
 Node,313,OFFICE_OPEN_2_8_Z54_SUPPLYINLET,Air,3
 Node,314,OFFICE_OPEN_2_8_Z54_COOLC-HEATCNODE,Air,6
 Node,315,OFFICE_OPEN_2_8_Z54_HEATC-FANNODE,Air,5
 Node,316,OFFICE_OPEN_2_8_Z54_SUPPLYEQUIPMENTOUTLETNODE,Air,3
 Node,317,OFFICE_OPEN_2_9_Z55_SUPPLYINLET,Air,3
 Node,318,OFFICE_OPEN_2_9_Z55_COOLC-HEATCNODE,Air,6
 Node,319,OFFICE_OPEN_2_9_Z55_HEATC-FANNODE,Air,5
 Node,320,OFFICE_OPEN_2_9_Z55_SUPPLYEQUIPMENTOUTLETNODE,Air,3
 Node,321,OFFICE_OPEN_2_10_Z56_SUPPLYINLET,Air,3
 Node,322,OFFICE_OPEN_2_10_Z56_COOLC-HEATCNODE,Air,6
 Node,323,OFFICE_OPEN_2_10_Z56_HEATC-FANNODE,Air,5
 Node,324,OFFICE_OPEN_2_10_Z56_SUPPLYEQUIPMENTOUTLETNODE,Air,3
 Node,325,OFFICE_OPEN_2_11_Z57_SUPPLYINLET,Air,3
 Node,326,OFFICE_OPEN_2_11_Z57_COOLC-HEATCNODE,Air,6
 Node,327,OFFICE_OPEN_2_11_Z57_HEATC-FANNODE,Air,5
 Node,328,OFFICE_OPEN_2_11_Z57_SUPPLYEQUIPMENTOUTLETNODE,Air,3
 Node,329,OFFICE_OPEN_2_12_Z58_SUPPLYINLET,Air,3
 Node,330,OFFICE_OPEN_2_12_Z58_COOLC-HEATCNODE,Air,6
 Node,331,OFFICE_OPEN_2_12_Z58_HEATC-FANNODE,Air,5
 Node,332,OFFICE_OPEN_2_12_Z58_SUPPLYEQUIPMENTOUTLETNODE,Air,3
 Node,333,OFFICE_OPEN_2_13_Z59_SUPPLYINLET,Air,3
 Node,334,OFFICE_OPEN_2_13_Z59_COOLC-HEATCNODE,Air,6
 Node,335,OFFICE_OPEN_2_13_Z59_HEATC-FANNODE,Air,5
 Node,336,OFFICE_OPEN_2_13_Z59_SUPPLYEQUIPMENTOUTLETNODE,Air,3
 Node,337,OFFICE_OPEN_2_14_Z60_SUPPLYINLET,Air,3
 Node,338,OFFICE_OPEN_2_14_Z60_COOLC-HEATCNODE,Air,6
 Node,339,OFFICE_OPEN_2_14_Z60_HEATC-FANNODE,Air,5
 Node,340,OFFICE_OPEN_2_14_Z60_SUPPLYEQUIPMENTOUTLETNODE,Air,3
 Node,341,LOBBY_3_Z61_SUPPLYINLET,Air,3
 Node,342,LOBBY_3_Z61_COOLC-HEATCNODE,Air,6
 Node,343,LOBBY_3_Z61_HEATC-FANNODE,Air,5
 Node,344,LOBBY_3_Z61_SUPPLYEQUIPMENTOUTLETNODE,Air,3
 Node,345,CONFERENCE_3_Z62_SUPPLYINLET,Air,3
 Node,346,CONFERENCE_3_Z62_COOLC-HEATCNODE,Air,6
 Node,347,CONFERENCE_3_Z62_HEATC-FANNODE,Air,5
 Node,348,CONFERENCE_3_Z62_SUPPLYEQUIPMENTOUTLETNODE,Air,3
 Node,349,BREAK_ROOM_3_Z63_SUPPLYINLET,Air,3
 Node,350,BREAK_ROOM_3_Z63_COOLC-HEATCNODE,Air,6
 Node,351,BREAK_ROOM_3_Z63_HEATC-FANNODE,Air,5
 Node,352,BREAK_ROOM_3_Z63_SUPPLYEQUIPMENTOUTLETNODE,Air,3
 Node,353,MECHANICAL_3_Z64_SUPPLYINLET,Air,3
 Node,354,MECHANICAL_3_Z64_COOLC-HEATCNODE,Air,6
 Node,355,MECHANICAL_3_Z64_HEATC-FANNODE,Air,5
 Node,356,MECHANICAL_3_Z64_SUPPLYEQUIPMENTOUTLETNODE,Air,3
 Node,357,OFFICE_OPEN_3_Z65_SUPPLYINLET,Air,3
 Node,358,OFFICE_OPEN_3_Z65_COOLC-HEATCNODE,Air,6
 Node,359,OFFICE_OPEN_3_Z65_HEATC-FANNODE,Air,5
 Node,360,OFFICE_OPEN_3_Z65_SUPPLYEQUIPMENTOUTLETNODE,Air,3
 Node,361,OFFICE_PRIVATE_3_Z66_SUPPLYINLET,Air,3
 Node,362,OFFICE_PRIVATE_3_Z66_COOLC-HEATCNODE,Air,6
 Node,363,OFFICE_PRIVATE_3_Z66_HEATC-FANNODE,Air,5
 Node,364,OFFICE_PRIVATE_3_Z66_SUPPLYEQUIPMENTOUTLETNODE,Air,3
 Node,365,STORAGE_3_Z67_SUPPLYINLET,Air,3
 Node,366,STORAGE_3_Z67_COOLC-HEATCNODE,Air,6
 Node,367,STORAGE_3_Z67_HEATC-FANNODE,Air,5
 Node,368,STORAGE_3_Z67_SUPPLYEQUIPMENTOUTLETNODE,Air,3
 Node,369,OFFICE_OPEN_3_2_Z68_SUPPLYINLET,Air,3
 Node,370,OFFICE_OPEN_3_2_Z68_COOLC-HEATCNODE,Air,6
 Node,371,OFFICE_OPEN_3_2_Z68_HEATC-FANNODE,Air,5
 Node,372,OFFICE_OPEN_3_2_Z68_SUPPLYEQUIPMENTOUTLETNODE,Air,3
 Node,373,OFFICE_OPEN_3_3_Z69_SUPPLYINLET,Air,3
 Node,374,OFFICE_OPEN_3_3_Z69_COOLC-HEATCNODE,Air,6
 Node,375,OFFICE_OPEN_3_3_Z69_HEATC-FANNODE,Air,5
 Node,376,OFFICE_OPEN_3_3_Z69_SUPPLYEQUIPMENTOUTLETNODE,Air,3
 Node,377,OFFICE_OPEN_3_4_Z70_SUPPLYINLET,Air,3
 Node,378,OFFICE_OPEN_3_4_Z70_COOLC-HEATCNODE,Air,6
 Node,379,OFFICE_OPEN_3_4_Z70_HEATC-FANNODE,Air,5
 Node,380,OFFICE_OPEN_3_4_Z70_SUPPLYEQUIPMENTOUTLETNODE,Air,3
 Node,381,OFFICE_OPEN_3_5_Z71_SUPPLYINLET,Air,3
 Node,382,OFFICE_OPEN_3_5_Z71_COOLC-HEATCNODE,Air,6
 Node,383,OFFICE_OPEN_3_5_Z71_HEATC-FANNODE,Air,5
 Node,384,OFFICE_OPEN_3_5_Z71_SUPPLYEQUIPMENTOUTLETNODE,Air,3
 Node,385,OFFICE_OPEN_3_6_Z72_SUPPLYINLET,Air,3
 Node,386,OFFICE_OPEN_3_6_Z72_COOLC-HEATCNODE,Air,6
 Node,387,OFFICE_OPEN_3_6_Z72_HEATC-FANNODE,Air,5
 Node,388,OFFICE_OPEN_3_6_Z72_SUPPLYEQUIPMENTOUTLETNODE,Air,3
 Node,389,OFFICE_OPEN_3_7_Z73_SUPPLYINLET,Air,3
 Node,390,OFFICE_OPEN_3_7_Z73_COOLC-HEATCNODE,Air,6
 Node,391,OFFICE_OPEN_3_7_Z73_HEATC-FANNODE,Air,5
 Node,392,OFFICE_OPEN_3_7_Z73_SUPPLYEQUIPMENTOUTLETNODE,Air,3
 Node,393,OFFICE_OPEN_3_8_Z74_SUPPLYINLET,Air,3
 Node,394,OFFICE_OPEN_3_8_Z74_COOLC-HEATCNODE,Air,6
 Node,395,OFFICE_OPEN_3_8_Z74_HEATC-FANNODE,Air,5
 Node,396,OFFICE_OPEN_3_8_Z74_SUPPLYEQUIPMENTOUTLETNODE,Air,3
 Node,397,OFFICE_OPEN_3_9_Z75_SUPPLYINLET,Air,3
 Node,398,OFFICE_OPEN_3_9_Z75_COOLC-HEATCNODE,Air,6
 Node,399,OFFICE_OPEN_3_9_Z75_HEATC-FANNODE,Air,5
 Node,400,OFFICE_OPEN_3_9_Z75_SUPPLYEQUIPMENTOUTLETNODE,Air,3
 Node,401,OFFICE_OPEN_3_10_Z76_SUPPLYINLET,Air,3
 Node,402,OFFICE_OPEN_3_10_Z76_COOLC-HEATCNODE,Air,6
 Node,403,OFFICE_OPEN_3_10_Z76_HEATC-FANNODE,Air,5
 Node,404,OFFICE_OPEN_3_10_Z76_SUPPLYEQUIPMENTOUTLETNODE,Air,3
 Node,405,OFFICE_OPEN_3_11_Z77_SUPPLYINLET,Air,3
 Node,406,OFFICE_OPEN_3_11_Z77_COOLC-HEATCNODE,Air,6
 Node,407,OFFICE_OPEN_3_11_Z77_HEATC-FANNODE,Air,5
 Node,408,OFFICE_OPEN_3_11_Z77_SUPPLYEQUIPMENTOUTLETNODE,Air,3
 Node,409,OFFICE_OPEN_3_12_Z78_SUPPLYINLET,Air,3
 Node,410,OFFICE_OPEN_3_12_Z78_COOLC-HEATCNODE,Air,6
 Node,411,OFFICE_OPEN_3_12_Z78_HEATC-FANNODE,Air,5
 Node,412,OFFICE_OPEN_3_12_Z78_SUPPLYEQUIPMENTOUTLETNODE,Air,3
 Node,413,OFFICE_OPEN_3_13_Z79_SUPPLYINLET,Air,3
 Node,414,OFFICE_OPEN_3_13_Z79_COOLC-HEATCNODE,Air,6
 Node,415,OFFICE_OPEN_3_13_Z79_HEATC-FANNODE,Air,5
 Node,416,OFFICE_OPEN_3_13_Z79_SUPPLYEQUIPMENTOUTLETNODE,Air,3
 Node,417,OFFICE_OPEN_3_14_Z80_SUPPLYINLET,Air,3
 Node,418,OFFICE_OPEN_3_14_Z80_COOLC-HEATCNODE,Air,6
 Node,419,OFFICE_OPEN_3_14_Z80_HEATC-FANNODE,Air,5
 Node,420,OFFICE_OPEN_3_14_Z80_SUPPLYEQUIPMENTOUTLETNODE,Air,3
 Node,421,LOBBY_4_Z81_SUPPLYINLET,Air,3
 Node,422,LOBBY_4_Z81_COOLC-HEATCNODE,Air,6
 Node,423,LOBBY_4_Z81_HEATC-FANNODE,Air,5
 Node,424,LOBBY_4_Z81_SUPPLYEQUIPMENTOUTLETNODE,Air,3
 Node,425,CONFERENCE_4_Z82_SUPPLYINLET,Air,3
 Node,426,CONFERENCE_4_Z82_COOLC-HEATCNODE,Air,6
 Node,427,CONFERENCE_4_Z82_HEATC-FANNODE,Air,5
 Node,428,CONFERENCE_4_Z82_SUPPLYEQUIPMENTOUTLETNODE,Air,3
 Node,429,BREAK_ROOM_4_Z83_SUPPLYINLET,Air,3
 Node,430,BREAK_ROOM_4_Z83_COOLC-HEATCNODE,Air,6
 Node,431,BREAK_ROOM_4_Z83_HEATC-FANNODE,Air,5
 Node,432,BREAK_ROOM_4_Z83_SUPPLYEQUIPMENTOUTLETNODE,Air,3
 Node,433,MECHANICAL_4_Z84_SUPPLYINLET,Air,3
 Node,434,MECHANICAL_4_Z84_COOLC-HEATCNODE,Air,6
 Node,435,MECHANICAL_4_Z84_HEATC-FANNODE,Air,5
 Node,436,MECHANICAL_4_Z84_SUPPLYEQUIPMENTOUTLETNODE,Air,3
 Node,437,OFFICE_OPEN_4_Z85_SUPPLYINLET,Air,3
 Node,438,OFFICE_OPEN_4_Z85_COOLC-HEATCNODE,Air,6
 Node,439,OFFICE_OPEN_4_Z85_HEATC-FANNODE,Air,5
 Node,440,OFFICE_OPEN_4_Z85_SUPPLYEQUIPMENTOUTLETNODE,Air,3
 Node,441,OFFICE_PRIVATE_4_Z86_SUPPLYINLET,Air,3
 Node,442,OFFICE_PRIVATE_4_Z86_COOLC-HEATCNODE,Air,6
 Node,443,OFFICE_PRIVATE_4_Z86_HEATC-FANNODE,Air,5
 Node,444,OFFICE_PRIVATE_4_Z86_SUPPLYEQUIPMENTOUTLETNODE,Air,3
 Node,445,STORAGE_4_Z87_SUPPLYINLET,Air,3
 Node,446,STORAGE_4_Z87_COOLC-HEATCNODE,Air,6
 Node,447,STORAGE_4_Z87_HEATC-FANNODE,Air,5
 Node,448,STORAGE_4_Z87_SUPPLYEQUIPMENTOUTLETNODE,Air,3
 Node,449,OFFICE_OPEN_4_2_Z88_SUPPLYINLET,Air,3
 Node,450,OFFICE_OPEN_4_2_Z88_COOLC-HEATCNODE,Air,6
 Node,451,OFFICE_OPEN_4_2_Z88_HEATC-FANNODE,Air,5
 Node,452,OFFICE_OPEN_4_2_Z88_SUPPLYEQUIPMENTOUTLETNODE,Air,3
 Node,453,OFFICE_OPEN_4_3_Z89_SUPPLYINLET,Air,3
 Node,454,OFFICE_OPEN_4_3_Z89_COOLC-HEATCNODE,Air,6
 Node,455,OFFICE_OPEN_4_3_Z89_HEATC-FANNODE,Air,5
 Node,456,OFFICE_OPEN_4_3_Z89_SUPPLYEQUIPMENTOUTLETNODE,Air,3
 Node,457,OFFICE_OPEN_4_4_Z90_SUPPLYINLET,Air,3
 Node,458,OFFICE_OPEN_4_4_Z90_COOLC-HEATCNODE,Air,6
 Node,459,OFFICE_OPEN_4_4_Z90_HEATC-FANNODE,Air,5
 Node,460,OFFICE_OPEN_4_4_Z90_SUPPLYEQUIPMENTOUTLETNODE,Air,3
 Node,461,OFFICE_OPEN_4_5_Z91_SUPPLYINLET,Air,3
 Node,462,OFFICE_OPEN_4_5_Z91_COOLC-HEATCNODE,Air,6
 Node,463,OFFICE_OPEN_4_5_Z91_HEATC-FANNODE,Air,5
 Node,464,OFFICE_OPEN_4_5_Z91_SUPPLYEQUIPMENTOUTLETNODE,Air,3
 Node,465,OFFICE_OPEN_4_6_Z92_SUPPLYINLET,Air,3
 Node,466,OFFICE_OPEN_4_6_Z92_COOLC-HEATCNODE,Air,6
 Node,467,OFFICE_OPEN_4_6_Z92_HEATC-FANNODE,Air,5
 Node,468,OFFICE_OPEN_4_6_Z92_SUPPLYEQUIPMENTOUTLETNODE,Air,3
 Node,469,OFFICE_OPEN_4_7_Z93_SUPPLYINLET,Air,3
 Node,470,OFFICE_OPEN_4_7_Z93_COOLC-HEATCNODE,Air,6
 Node,471,OFFICE_OPEN_4_7_Z93_HEATC-FANNODE,Air,5
 Node,472,OFFICE_OPEN_4_7_Z93_SUPPLYEQUIPMENTOUTLETNODE,Air,3
 Node,473,OFFICE_OPEN_4_8_Z94_SUPPLYINLET,Air,3
 Node,474,OFFICE_OPEN_4_8_Z94_COOLC-HEATCNODE,Air,6
 Node,475,OFFICE_OPEN_4_8_Z94_HEATC-FANNODE,Air,5
 Node,476,OFFICE_OPEN_4_8_Z94_SUPPLYEQUIPMENTOUTLETNODE,Air,3
 Node,477,OFFICE_OPEN_4_9_Z95_SUPPLYINLET,Air,3
 Node,478,OFFICE_OPEN_4_9_Z95_COOLC-HEATCNODE,Air,6
 Node,479,OFFICE_OPEN_4_9_Z95_HEATC-FANNODE,Air,5
 Node,480,OFFICE_OPEN_4_9_Z95_SUPPLYEQUIPMENTOUTLETNODE,Air,3
 Node,481,OFFICE_OPEN_4_10_Z96_SUPPLYINLET,Air,3
 Node,482,OFFICE_OPEN_4_10_Z96_COOLC-HEATCNODE,Air,6
 Node,483,OFFICE_OPEN_4_10_Z96_HEATC-FANNODE,Air,5
 Node,484,OFFICE_OPEN_4_10_Z96_SUPPLYEQUIPMENTOUTLETNODE,Air,3
 Node,485,OFFICE_OPEN_4_11_Z97_SUPPLYINLET,Air,3
 Node,486,OFFICE_OPEN_4_11_Z97_COOLC-HEATCNODE,Air,6
 Node,487,OFFICE_OPEN_4_11_Z97_HEATC-FANNODE,Air,5
 Node,488,OFFICE_OPEN_4_11_Z97_SUPPLYEQUIPMENTOUTLETNODE,Air,3
 Node,489,OFFICE_OPEN_4_12_Z98_SUPPLYINLET,Air,3
 Node,490,OFFICE_OPEN_4_12_Z98_COOLC-HEATCNODE,Air,6
 Node,491,OFFICE_OPEN_4_12_Z98_HEATC-FANNODE,Air,5
 Node,492,OFFICE_OPEN_4_12_Z98_SUPPLYEQUIPMENTOUTLETNODE,Air,3
 Node,493,OFFICE_OPEN_4_13_Z99_SUPPLYINLET,Air,3
 Node,494,OFFICE_OPEN_4_13_Z99_COOLC-HEATCNODE,Air,6
 Node,495,OFFICE_OPEN_4_13_Z99_HEATC-FANNODE,Air,5
 Node,496,OFFICE_OPEN_4_13_Z99_SUPPLYEQUIPMENTOUTLETNODE,Air,3
 Node,497,OFFICE_OPEN_4_14_Z100_SUPPLYINLET,Air,3
 Node,498,OFFICE_OPEN_4_14_Z100_COOLC-HEATCNODE,Air,6
 Node,499,OFFICE_OPEN_4_14_Z100_HEATC-FANNODE,Air,5
 Node,500,OFFICE_OPEN_4_14_Z100_SUPPLYEQUIPMENTOUTLETNODE,Air,3
 Node,501,LOBBY_0 AIR NODE,Air,0
 Node,502,LOBBY_0_Z1_RETURNAIR,Air,1
 Node,503,CONFERENCE_0 AIR NODE,Air,0
 Node,504,CONFERENCE_0_Z2_RETURNAIR,Air,1
 Node,505,BREAK_ROOM_0 AIR NODE,Air,0
 Node,506,BREAK_ROOM_0_Z3_RETURNAIR,Air,1
 Node,507,MECHANICAL_0 AIR NODE,Air,0
 Node,508,MECHANICAL_0_Z4_RETURNAIR,Air,1
 Node,509,OFFICE_OPEN_0 AIR NODE,Air,0
 Node,510,OFFICE_OPEN_0_Z5_RETURNAIR,Air,1
 Node,511,OFFICE_PRIVATE_0 AIR NODE,Air,0
 Node,512,OFFICE_PRIVATE_0_Z6_RETURNAIR,Air,1
 Node,513,STORAGE_0 AIR NODE,Air,0
 Node,514,STORAGE_0_Z7_RETURNAIR,Air,1
 Node,515,OFFICE_OPEN_0_2 AIR NODE,Air,0
 Node,516,OFFICE_OPEN_0_2_Z8_RETURNAIR,Air,1
 Node,517,OFFICE_OPEN_0_3 AIR NODE,Air,0
 Node,518,OFFICE_OPEN_0_3_Z9_RETURNAIR,Air,1
 Node,519,OFFICE_OPEN_0_4 AIR NODE,Air,0
 Node,520,OFFICE_OPEN_0_4_Z10_RETURNAIR,Air,1
 Node,521,OFFICE_OPEN_0_5 AIR NODE,Air,0
 Node,522,OFFICE_OPEN_0_5_Z11_RETURNAIR,Air,1
 Node,523,OFFICE_OPEN_0_6 AIR NODE,Air,0
 Node,524,OFFICE_OPEN_0_6_Z12_RETURNAIR,Air,1
 Node,525,OFFICE_OPEN_0_7 AIR NODE,Air,0
 Node,526,OFFICE_OPEN_0_7_Z13_RETURNAIR,Air,1
 Node,527,OFFICE_OPEN_0_8 AIR NODE,Air,0
 Node,528,OFFICE_OPEN_0_8_Z14_RETURNAIR,Air,1
 Node,529,OFFICE_OPEN_0_9 AIR NODE,Air,0
 Node,530,OFFICE_OPEN_0_9_Z15_RETURNAIR,Air,1
 Node,531,OFFICE_OPEN_0_10 AIR NODE,Air,0
 Node,532,OFFICE_OPEN_0_10_Z16_RETURNAIR,Air,1
 Node,533,OFFICE_OPEN_0_11 AIR NODE,Air,0
 Node,534,OFFICE_OPEN_0_11_Z17_RETURNAIR,Air,1
 Node,535,OFFICE_OPEN_0_12 AIR NODE,Air,0
 Node,536,OFFICE_OPEN_0_12_Z18_RETURNAIR,Air,1
 Node,537,OFFICE_OPEN_0_13 AIR NODE,Air,0
 Node,538,OFFICE_OPEN_0_13_Z19_RETURNAIR,Air,1
 Node,539,OFFICE_OPEN_0_14 AIR NODE,Air,0
 Node,540,OFFICE_OPEN_0_14_Z20_RETURNAIR,Air,1
 Node,541,LOBBY_1 AIR NODE,Air,0
 Node,542,LOBBY_1_Z21_RETURNAIR,Air,1
 Node,543,CONFERENCE_1 AIR NODE,Air,0
 Node,544,CONFERENCE_1_Z22_RETURNAIR,Air,1
 Node,545,BREAK_ROOM_1 AIR NODE,Air,0
 Node,546,BREAK_ROOM_1_Z23_RETURNAIR,Air,1
 Node,547,MECHANICAL_1 AIR NODE,Air,0
 Node,548,MECHANICAL_1_Z24_RETURNAIR,Air,1
 Node,549,OFFICE_OPEN_1 AIR NODE,Air,0
 Node,550,OFFICE_OPEN_1_Z25_RETURNAIR,Air,1
 Node,551,OFFICE_PRIVATE_1 AIR NODE,Air,0
 Node,552,OFFICE_PRIVATE_1_Z26_RETURNAIR,Air,1
 Node,553,STORAGE_1 AIR NODE,Air,0
 Node,554,STORAGE_1_Z27_RETURNAIR,Air,1
 Node,555,OFFICE_OPEN_1_2 AIR NODE,Air,0
 Node,556,OFFICE_OPEN_1_2_Z28_RETURNAIR,Air,1
 Node,557,OFFICE_OPEN_1_3 AIR NODE,Air,0
 Node,558,OFFICE_OPEN_1_3_Z29_RETURNAIR,Air,1
 Node,559,OFFICE_OPEN_1_4 AIR NODE,Air,0
 Node,560,OFFICE_OPEN_1_4_Z30_RETURNAIR,Air,1
 Node,561,OFFICE_OPEN_1_5 AIR NODE,Air,0
 Node,562,OFFICE_OPEN_1_5_Z31_RETURNAIR,Air,1
 Node,563,OFFICE_OPEN_1_6 AIR NODE,Air,0
 Node,564,OFFICE_OPEN_1_6_Z32_RETURNAIR,Air,1
 Node,565,OFFICE_OPEN_1_7 AIR NODE,Air,0
 Node,566,OFFICE_OPEN_1_7_Z33_RETURNAIR,Air,1
 Node,567,OFFICE_OPEN_1_8 AIR NODE,Air,0
 Node,568,OFFICE_OPEN_1_8_Z34_RETURNAIR,Air,1
 Node,569,OFFICE_OPEN_1_9 AIR NODE,Air,0
 Node,570,OFFICE_OPEN_1_9_Z35_RETURNAIR,Air,1
 Node,571,OFFICE_OPEN_1_10 AIR NODE,Air,0
 Node,572,OFFICE_OPEN_1_10_Z36_RETURNAIR,Air,1
 Node,573,OFFICE_OPEN_1_11 AIR NODE,Air,0
 Node,574,OFFICE_OPEN_1_11_Z37_RETURNAIR,Air,1
 Node,575,OFFICE_OPEN_1_12 AIR NODE,Air,0
 Node,576,OFFICE_OPEN_1_12_Z38_RETURNAIR,Air,1
 Node,577,OFFICE_OPEN_1_13 AIR NODE,Air,0
 Node,578,OFFICE_OPEN_1_13_Z39_RETURNAIR,Air,1
 Node,579,OFFICE_OPEN_1_14 AIR NODE,Air,0
 Node,580,OFFICE_OPEN_1_14_Z40_RETURNAIR,Air,1
 Node,581,LOBBY_2 AIR NODE,Air,0
 Node,582,LOBBY_2_Z41_RETURNAIR,Air,1
 Node,583,CONFERENCE_2 AIR NODE,Air,0
 Node,584,CONFERENCE_2_Z42_RETURNAIR,Air,1
 Node,585,BREAK_ROOM_2 AIR NODE,Air,0
 Node,586,BREAK_ROOM_2_Z43_RETURNAIR,Air,1
 Node,587,MECHANICAL_2 AIR NODE,Air,0
 Node,588,MECHANICAL_2_Z44_RETURNAIR,Air,1
 Node,589,OFFICE_OPEN_2 AIR NODE,Air,0
 Node,590,OFFICE_OPEN_2_Z45_RETURNAIR,Air,1
 Node,591,OFFICE_PRIVATE_2 AIR NODE,Air,0
 Node,592,OFFICE_PRIVATE_2_Z46_RETURNAIR,Air,1
 Node,593,STORAGE_2 AIR NODE,Air,0
 Node,594,STORAGE_2_Z47_RETURNAIR,Air,1
 Node,595,OFFICE_OPEN_2_2 AIR NODE,Air,0
 Node,596,OFFICE_OPEN_2_2_Z48_RETURNAIR,Air,1
 Node,597,OFFICE_OPEN_2_3 AIR NODE,Air,0
 Node,598,OFFICE_OPEN_2_3_Z49_RETURNAIR,Air,1
 Node,599,OFFICE_OPEN_2_4 AIR NODE,Air,0
 Node,600,OFFICE_OPEN_2_4_Z50_RETURNAIR,Air,1
 Node,601,OFFICE_OPEN_2_5 AIR NODE,Air,0
 Node,602,OFFICE_OPEN_2_5_Z51_RETURNAIR,Air,1
 Node,603,OFFICE_OPEN_2_6 AIR NODE,Air,0
 Node,604,OFFICE_OPEN_2_6_Z52_RETURNAIR,Air,1
 Node,605,OFFICE_OPEN_2_7 AIR NODE,Air,0
 Node,606,OFFICE_OPEN_2_7_Z53_RETURNAIR,Air,1
 Node,607,OFFICE_OPEN_2_8 AIR NODE,Air,0
 Node,608,OFFICE_OPEN_2_8_Z54_RETURNAIR,Air,1
 Node,609,OFFICE_OPEN_2_9 AIR NODE,Air,0
 Node,610,OFFICE_OPEN_2_9_Z55_RETURNAIR,Air,1
 Node,611,OFFICE_OPEN_2_10 AIR NODE,Air,0
 Node,612,OFFICE_OPEN_2_10_Z56_RETURNAIR,Air,1
 Node,613,OFFICE_OPEN_2_11 AIR NODE,Air,0
 Node,614,OFFICE_OPEN_2_11_Z57_RETURNAIR,Air,1
 Node,615,OFFICE_OPEN_2_12 AIR NODE,Air,0
 Node,616,OFFICE_OPEN_2_12_Z58_RETURNAIR,Air,1
 Node,617,OFFICE_OPEN_2_13 AIR NODE,Air,0
 Node,618,OFFICE_OPEN_2_13_Z59_RETURNAIR,Air,1
 Node,619,OFFICE_OPEN_2_14 AIR NODE,Air,0
 Node,620,OFFICE_OPEN_2_14_Z60_RETURNAIR,Air,1
 Node,621,LOBBY_3 AIR NODE,Air,0
 Node,622,LOBBY_3_Z61_RETURNAIR,Air,1
 Node,623,CONFERENCE_3 AIR NODE,Air,0
 Node,624,CONFERENCE_3_Z62_RETURNAIR,Air,1
 Node,625,BREAK_ROOM_3 AIR NODE,Air,0
 Node,626,BREAK_ROOM_3_Z63_RETURNAIR,Air,1
 Node,627,MECHANICAL_3 AIR NODE,Air,0
 Node,628,MECHANICAL_3_Z64_RETURNAIR,Air,1
 Node,629,OFFICE_OPEN_3 AIR NODE,Air,0
 Node,630,OFFICE_OPEN_3_Z65_RETURNAIR,Air,1
 Node,631,OFFICE_PRIVATE_3 AIR NODE,Air,0
 Node,632,OFFICE_PRIVATE_3_Z66_RETURNAIR,Air,1
 Node,633,STORAGE_3 AIR NODE,Air,0
 Node,634,STORAGE_3_Z67_RETURNAIR,Air,1
 Node,635,OFFICE_OPEN_3_2 AIR NODE,Air,0
 Node,636,OFFICE_OPEN_3_2_Z68_RETURNAIR,Air,1
 Node,637,OFFICE_OPEN_3_3 AIR NODE,Air,0
 Node,638,OFFICE_OPEN_3_3_Z69_RETURNAIR,Air,1
 Node,639,OFFICE_OPEN_3_4 AIR NODE,Air,0
 Node,640,OFFICE_OPEN_3_4_Z70_RETURNAIR,Air,1
 Node,641,OFFICE_OPEN_3_5 AIR NODE,Air,0
 Node,642,OFFICE_OPEN_3_5_Z71_RETURNAIR,Air,1
 Node,643,OFFICE_OPEN_3_6 AIR NODE,Air,0
 Node,644,OFFICE_OPEN_3_6_Z72_RETURNAIR,Air,1
 Node,645,OFFICE_OPEN_3_7 AIR NODE,Air,0
 Node,646,OFFICE_OPEN_3_7_Z73_RETURNAIR,Air,1
 Node,647,OFFICE_OPEN_3_8 AIR NODE,Air,0
 Node,648,OFFICE_OPEN_3_8_Z74_RETURNAIR,Air,1
 Node,649,OFFICE_OPEN_3_9 AIR NODE,Air,0
 Node,650,OFFICE_OPEN_3_9_Z75_RETURNAIR,Air,1
 Node,651,OFFICE_OPEN_3_10 AIR NODE,Air,0
 Node,652,OFFICE_OPEN_3_10_Z76_RETURNAIR,Air,1
 Node,653,OFFICE_OPEN_3_11 AIR NODE,Air,0
 Node,654,OFFICE_OPEN_3_11_Z77_RETURNAIR,Air,1
 Node,655,OFFICE_OPEN_3_12 AIR NODE,Air,0
 Node,656,OFFICE_OPEN_3_12_Z78_RETURNAIR,Air,1
 Node,657,OFFICE_OPEN_3_13 AIR NODE,Air,0
 Node,658,OFFICE_OPEN_3_13_Z79_RETURNAIR,Air,1
 Node,659,OFFICE_OPEN_3_14 AIR NODE,Air,0
 Node,660,OFFICE_OPEN_3_14_Z80_RETURNAIR,Air,1
 Node,661,LOBBY_4 AIR NODE,Air,0
 Node,662,LOBBY_4_Z81_RETURNAIR,Air,1
 Node,663,CONFERENCE_4 AIR NODE,Air,0
 Node,664,CONFERENCE_4_Z82_RETURNAIR,Air,1
 Node,665,BREAK_ROOM_4 AIR NODE,Air,0
 Node,666,BREAK_ROOM_4_Z83_RETURNAIR,Air,1
 Node,667,MECHANICAL_4 AIR NODE,Air,0
 Node,668,MECHANICAL_4_Z84_RETURNAIR,Air,1
 Node,669,OFFICE_OPEN_4 AIR NODE,Air,0
 Node,670,OFFICE_OPEN_4_Z85_RETURNAIR,Air,1
 Node,671,OFFICE_PRIVATE_4 AIR NODE,Air,0
 Node,672,OFFICE_PRIVATE_4_Z86_RETURNAIR,Air,1
 Node,673,STORAGE_4 AIR NODE,Air,0
 Node,674,STORAGE_4_Z87_RETURNAIR,Air,1
 Node,675,OFFICE_OPEN_4_2 AIR NODE,Air,0
 Node,676,OFFICE_OPEN_4_2_Z88_RETURNAIR,Air,1
 Node,677,OFFICE_OPEN_4_3 AIR NODE,Air,0
 Node,678,OFFICE_OPEN_4_3_Z89_RETURNAIR,Air,1
 Node,679,OFFICE_OPEN_4_4 AIR NODE,Air,0
 Node,680,OFFICE_OPEN_4_4_Z90_RETURNAIR,Air,1
 Node,681,OFFICE_OPEN_4_5 AIR NODE,Air,0
 Node,682,OFFICE_OPEN_4_5_Z91_RETURNAIR,Air,1
 Node,683,OFFICE_OPEN_4_6 AIR NODE,Air,0
 Node,684,OFFICE_OPEN_4_6_Z92_RETURNAIR,Air,1
 Node,685,OFFICE_OPEN_4_7 AIR NODE,Air,0
 Node,686,OFFICE_OPEN_4_7_Z93_RETURNAIR,Air,1
 Node,687,OFFICE_OPEN_4_8 AIR NODE,Air,0
 Node,688,OFFICE_OPEN_4_8_Z94_RETURNAIR,Air,1
 Node,689,OFFICE_OPEN_4_9 AIR NODE,Air,0
 Node,690,OFFICE_OPEN_4_9_Z95_RETURNAIR,Air,1
 Node,691,OFFICE_OPEN_4_10 AIR NODE,Air,0
 Node,692,OFFICE_OPEN_4_10_Z96_RETURNAIR,Air,1
 Node,693,OFFICE_OPEN_4_11 AIR NODE,Air,0
 Node,694,OFFICE_OPEN_4_11_Z97_RETURNAIR,Air,1
 Node,695,OFFICE_OPEN_4_12 AIR NODE,Air,0
 Node,696,OFFICE_OPEN_4_12_Z98_RETURNAIR,Air,1
 Node,697,OFFICE_OPEN_4_13 AIR NODE,Air,0
 Node,698,OFFICE_OPEN_4_13_Z99_RETURNAIR,Air,1
 Node,699,OFFICE_OPEN_4_14 AIR NODE,Air,0
 Node,700,OFFICE_OPEN_4_14_Z100_RETURNAIR,Air,1
 Node,701,LOBBY_0_Z1_ZONEEQUIPMENTINLET,Air,2
 Node,702,CONFERENCE_0_Z2_ZONEEQUIPMENTINLET,Air,2
 Node,703,BREAK_ROOM_0_Z3_ZONEEQUIPMENTINLET,Air,2
 Node,704,MECHANICAL_0_Z4_ZONEEQUIPMENTINLET,Air,2
 Node,705,OFFICE_OPEN_0_Z5_ZONEEQUIPMENTINLET,Air,2
 Node,706,OFFICE_PRIVATE_0_Z6_ZONEEQUIPMENTINLET,Air,2
 Node,707,STORAGE_0_Z7_ZONEEQUIPMENTINLET,Air,2
 Node,708,OFFICE_OPEN_0_2_Z8_ZONEEQUIPMENTINLET,Air,2
 Node,709,OFFICE_OPEN_0_3_Z9_ZONEEQUIPMENTINLET,Air,2
 Node,710,OFFICE_OPEN_0_4_Z10_ZONEEQUIPMENTINLET,Air,2
 Node,711,OFFICE_OPEN_0_5_Z11_ZONEEQUIPMENTINLET,Air,2
 Node,712,OFFICE_OPEN_0_6_Z12_ZONEEQUIPMENTINLET,Air,2
 Node,713,OFFICE_OPEN_0_7_Z13_ZONEEQUIPMENTINLET,Air,2
 Node,714,OFFICE_OPEN_0_8_Z14_ZONEEQUIPMENTINLET,Air,2
 Node,715,OFFICE_OPEN_0_9_Z15_ZONEEQUIPMENTINLET,Air,2
 Node,716,OFFICE_OPEN_0_10_Z16_ZONEEQUIPMENTINLET,Air,2
 Node,717,OFFICE_OPEN_0_11_Z17_ZONEEQUIPMENTINLET,Air,2
 Node,718,OFFICE_OPEN_0_12_Z18_ZONEEQUIPMENTINLET,Air,2
 Node,719,OFFICE_OPEN_0_13_Z19_ZONEEQUIPMENTINLET,Air,2
 Node,720,OFFICE_OPEN_0_14_Z20_ZONEEQUIPMENTINLET,Air,2
 Node,721,LOBBY_1_Z21_ZONEEQUIPMENTINLET,Air,2
 Node,722,CONFERENCE_1_Z22_ZONEEQUIPMENTINLET,Air,2
 Node,723,BREAK_ROOM_1_Z23_ZONEEQUIPMENTINLET,Air,2
 Node,724,MECHANICAL_1_Z24_ZONEEQUIPMENTINLET,Air,2
 Node,725,OFFICE_OPEN_1_Z25_ZONEEQUIPMENTINLET,Air,2
 Node,726,OFFICE_PRIVATE_1_Z26_ZONEEQUIPMENTINLET,Air,2
 Node,727,STORAGE_1_Z27_ZONEEQUIPMENTINLET,Air,2
 Node,728,OFFICE_OPEN_1_2_Z28_ZONEEQUIPMENTINLET,Air,2
 Node,729,OFFICE_OPEN_1_3_Z29_ZONEEQUIPMENTINLET,Air,2
 Node,730,OFFICE_OPEN_1_4_Z30_ZONEEQUIPMENTINLET,Air,2
 Node,731,OFFICE_OPEN_1_5_Z31_ZONEEQUIPMENTINLET,Air,2
 Node,732,OFFICE_OPEN_1_6_Z32_ZONEEQUIPMENTINLET,Air,2
 Node,733,OFFICE_OPEN_1_7_Z33_ZONEEQUIPMENTINLET,Air,2
 Node,734,OFFICE_OPEN_1_8_Z34_ZONEEQUIPMENTINLET,Air,2
 Node,735,OFFICE_OPEN_1_9_Z35_ZONEEQUIPMENTINLET,Air,2
 Node,736,OFFICE_OPEN_1_10_Z36_ZONEEQUIPMENTINLET,Air,2
 Node,737,OFFICE_OPEN_1_11_Z37_ZONEEQUIPMENTINLET,Air,2
 Node,738,OFFICE_OPEN_1_12_Z38_ZONEEQUIPMENTINLET,Air,2
 Node,739,OFFICE_OPEN_1_13_Z39_ZONEEQUIPMENTINLET,Air,2
 Node,740,OFFICE_OPEN_1_14_Z40_ZONEEQUIPMENTINLET,Air,2
 Node,741,LOBBY_2_Z41_ZONEEQUIPMENTINLET,Air,2
 Node,742,CONFERENCE_2_Z42_ZONEEQUIPMENTINLET,Air,2
 Node,743,BREAK_ROOM_2_Z43_ZONEEQUIPMENTINLET,Air,2
 Node,744,MECHANICAL_2_Z44_ZONEEQUIPMENTINLET,Air,2
 Node,745,OFFICE_OPEN_2_Z45_ZONEEQUIPMENTINLET,Air,2
 Node,746,OFFICE_PRIVATE_2_Z46_ZONEEQUIPMENTINLET,Air,2
 Node,747,STORAGE_2_Z47_ZONEEQUIPMENTINLET,Air,2
 Node,748,OFFICE_OPEN_2_2_Z48_ZONEEQUIPMENTINLET,Air,2
 Node,749,OFFICE_OPEN_2_3_Z49_ZONEEQUIPMENTINLET,Air,2
 Node,750,OFFICE_OPEN_2_4_Z50_ZONEEQUIPMENTINLET,Air,2
 Node,751,OFFICE_OPEN_2_5_Z51_ZONEEQUIPMENTINLET,Air,2
 Node,752,OFFICE_OPEN_2_6_Z52_ZONEEQUIPMENTINLET,Air,2
 Node,753,OFFICE_OPEN_2_7_Z53_ZONEEQUIPMENTINLET,Air,2
 Node,754,OFFICE_OPEN_2_8_Z54_ZONEEQUIPMENTINLET,Air,2
 Node,755,OFFICE_OPEN_2_9_Z55_ZONEEQUIPMENTINLET,Air,2
 Node,756,OFFICE_OPEN_2_10_Z56_ZONEEQUIPMENTINLET,Air,2
 Node,757,OFFICE_OPEN_2_11_Z57_ZONEEQUIPMENTINLET,Air,2
 Node,758,OFFICE_OPEN_2_12_Z58_ZONEEQUIPMENTINLET,Air,2
 Node,759,OFFICE_OPEN_2_13_Z59_ZONEEQUIPMENTINLET,Air,2
 Node,760,OFFICE_OPEN_2_14_Z60_ZONEEQUIPMENTINLET,Air,2
 Node,761,LOBBY_3_Z61_ZONEEQUIPMENTINLET,Air,2
 Node,762,CONFERENCE_3_Z62_ZONEEQUIPMENTINLET,Air,2
 Node,763,BREAK_ROOM_3_Z63_ZONEEQUIPMENTINLET,Air,2
 Node,764,MECHANICAL_3_Z64_ZONEEQUIPMENTINLET,Air,2
 Node,765,OFFICE_OPEN_3_Z65_ZONEEQUIPMENTINLET,Air,2
 Node,766,OFFICE_PRIVATE_3_Z66_ZONEEQUIPMENTINLET,Air,2
 Node,767,STORAGE_3_Z67_ZONEEQUIPMENTINLET,Air,2
 Node,768,OFFICE_OPEN_3_2_Z68_ZONEEQUIPMENTINLET,Air,2
 Node,769,OFFICE_OPEN_3_3_Z69_ZONEEQUIPMENTINLET,Air,2
 Node,770,OFFICE_OPEN_3_4_Z70_ZONEEQUIPMENTINLET,Air,2
 Node,771,OFFICE_OPEN_3_5_Z71_ZONEEQUIPMENTINLET,Air,2
 Node,772,OFFICE_OPEN_3_6_Z72_ZONEEQUIPMENTINLET,Air,2
 Node,773,OFFICE_OPEN_3_7_Z73_ZONEEQUIPMENTINLET,Air,2
 Node,774,OFFICE_OPEN_3_8_Z74_ZONEEQUIPMENTINLET,Air,2
 Node,775,OFFICE_OPEN_3_9_Z75_ZONEEQUIPMENTINLET,Air,2
 Node,776,OFFICE_OPEN_3_10_Z76_ZONEEQUIPMENTINLET,Air,2
 Node,777,OFFICE_OPEN_3_11_Z77_ZONEEQUIPMENTINLET,Air,2
 Node,778,OFFICE_OPEN_3_12_Z78_ZONEEQUIPMENTINLET,Air,2
 Node,779,OFFICE_OPEN_3_13_Z79_ZONEEQUIPMENTINLET,Air,2
 Node,780,OFFICE_OPEN_3_14_Z80_ZONEEQUIPMENTINLET,Air,2
 Node,781,LOBBY_4_Z81_ZONEEQUIPMENTINLET,Air,2
 Node,782,CONFERENCE_4_Z82_ZONEEQUIPMENTINLET,Air,2
 Node,783,BREAK_ROOM_4_Z83_ZONEEQUIPMENTINLET,Air,2
 Node,784,MECHANICAL_4_Z84_ZONEEQUIPMENTINLET,Air,2
 Node,785,OFFICE_OPEN_4_Z85_ZONEEQUIPMENTINLET,Air,2
 Node,786,OFFICE_PRIVATE_4_Z86_ZONEEQUIPMENTINLET,Air,2
 Node,787,STORAGE_4_Z87_ZONEEQUIPMENTINLET,Air,2
 Node,788,OFFICE_OPEN_4_2_Z88_ZONEEQUIPMENTINLET,Air,2
 Node,789,OFFICE_OPEN_4_3_Z89_ZONEEQUIPMENTINLET,Air,2
 Node,790,OFFICE_OPEN_4_4_Z90_ZONEEQUIPMENTINLET,Air,2
 Node,791,OFFICE_OPEN_4_5_Z91_ZONEEQUIPMENTINLET,Air,2
 Node,792,OFFICE_OPEN_4_6_Z92_ZONEEQUIPMENTINLET,Air,2
 Node,793,OFFICE_OPEN_4_7_Z93_ZONEEQUIPMENTINLET,Air,2
 Node,794,OFFICE_OPEN_4_8_Z94_ZONEEQUIPMENTINLET,Air,2
 Node,795,OFFICE_OPEN_4_9_Z95_ZONEEQUIPMENTINLET,Air,2
 Node,796,OFFICE_OPEN_4_10_Z96_ZONEEQUIPMENTINLET,Air,2
 Node,797,OFFICE_OPEN_4_11_Z97_ZONEEQUIPMENTINLET,Air,2
 Node,798,OFFICE_OPEN_4_12_Z98_ZONEEQUIPMENTINLET,Air,2
 Node,799,OFFICE_OPEN_4_13_Z99_ZONEEQUIPMENTINLET,Air,2
 Node,800,OFFICE_OPEN_4_14_Z100_ZONEEQUIPMENTINLET,Air,2
 Node,801,LOBBY_0_Z1_ZONEEQUIPMENTOUTLETNODE,Air,2
 Node,802,CONFERENCE_0_Z2_ZONEEQUIPMENTOUTLETNODE,Air,2
 Node,803,BREAK_ROOM_0_Z3_ZONEEQUIPMENTOUTLETNODE,Air,2
 Node,804,MECHANICAL_0_Z4_ZONEEQUIPMENTOUTLETNODE,Air,2
 Node,805,OFFICE_OPEN_0_Z5_ZONEEQUIPMENTOUTLETNODE,Air,2
 Node,806,OFFICE_PRIVATE_0_Z6_ZONEEQUIPMENTOUTLETNODE,Air,2
 Node,807,STORAGE_0_Z7_ZONEEQUIPMENTOUTLETNODE,Air,2
 Node,808,OFFICE_OPEN_0_2_Z8_ZONEEQUIPMENTOUTLETNODE,Air,2
 Node,809,OFFICE_OPEN_0_3_Z9_ZONEEQUIPMENTOUTLETNODE,Air,2
 Node,810,OFFICE_OPEN_0_4_Z10_ZONEEQUIPMENTOUTLETNODE,Air,2
 Node,811,OFFICE_OPEN_0_5_Z11_ZONEEQUIPMENTOUTLETNODE,Air,2
 Node,812,OFFICE_OPEN_0_6_Z12_ZONEEQUIPMENTOUTLETNODE,Air,2
 Node,813,OFFICE_OPEN_0_7_Z13_ZONEEQUIPMENTOUTLETNODE,Air,2
 Node,814,OFFICE_OPEN_0_8_Z14_ZONEEQUIPMENTOUTLETNODE,Air,2
 Node,815,OFFICE_OPEN_0_9_Z15_ZONEEQUIPMENTOUTLETNODE,Air,2
 Node,816,OFFICE_OPEN_0_10_Z16_ZONEEQUIPMENTOUTLETNODE,Air,2
 Node,817,OFFICE_OPEN_0_11_Z17_ZONEEQUIPMENTOUTLETNODE,Air,2
 Node,818,OFFICE_OPEN_0_12_Z18_ZONEEQUIPMENTOUTLETNODE,Air,2
 Node,819,OFFICE_OPEN_0_13_Z19_ZONEEQUIPMENTOUTLETNODE,Air,2
 Node,820,OFFICE_OPEN_0_14_Z20_ZONEEQUIPMENTOUTLETNODE,Air,2
 Node,821,LOBBY_1_Z21_ZONEEQUIPMENTOUTLETNODE,Air,2
 Node,822,CONFERENCE_1_Z22_ZONEEQUIPMENTOUTLETNODE,Air,2
 Node,823,BREAK_ROOM_1_Z23_ZONEEQUIPMENTOUTLETNODE,Air,2
 Node,824,MECHANICAL_1_Z24_ZONEEQUIPMENTOUTLETNODE,Air,2
 Node,825,OFFICE_OPEN_1_Z25_ZONEEQUIPMENTOUTLETNODE,Air,2
 Node,826,OFFICE_PRIVATE_1_Z26_ZONEEQUIPMENTOUTLETNODE,Air,2
 Node,827,STORAGE_1_Z27_ZONEEQUIPMENTOUTLETNODE,Air,2
 Node,828,OFFICE_OPEN_1_2_Z28_ZONEEQUIPMENTOUTLETNODE,Air,2
 Node,829,OFFICE_OPEN_1_3_Z29_ZONEEQUIPMENTOUTLETNODE,Air,2
 Node,830,OFFICE_OPEN_1_4_Z30_ZONEEQUIPMENTOUTLETNODE,Air,2
 Node,831,OFFICE_OPEN_1_5_Z31_ZONEEQUIPMENTOUTLETNODE,Air,2
 Node,832,OFFICE_OPEN_1_6_Z32_ZONEEQUIPMENTOUTLETNODE,Air,2
 Node,833,OFFICE_OPEN_1_7_Z33_ZONEEQUIPMENTOUTLETNODE,Air,2
 Node,834,OFFICE_OPEN_1_8_Z34_ZONEEQUIPMENTOUTLETNODE,Air,2
 Node,835,OFFICE_OPEN_1_9_Z35_ZONEEQUIPMENTOUTLETNODE,Air,2
 Node,836,OFFICE_OPEN_1_10_Z36_ZONEEQUIPMENTOUTLETNODE,Air,2
 Node,837,OFFICE_OPEN_1_11_Z37_ZONEEQUIPMENTOUTLETNODE,Air,2
 Node,838,OFFICE_OPEN_1_12_Z38_ZONEEQUIPMENTOUTLETNODE,Air,2
 Node,839,OFFICE_OPEN_1_13_Z39_ZONEEQUIPMENTOUTLETNODE,Air,2
 Node,840,OFFICE_OPEN_1_14_Z40_ZONEEQUIPMENTOUTLETNODE,Air,2
 Node,841,LOBBY_2_Z41_ZONEEQUIPMENTOUTLETNODE,Air,2
 Node,842,CONFERENCE_2_Z42_ZONEEQUIPMENTOUTLETNODE,Air,2
 Node,843,BREAK_ROOM_2_Z43_ZONEEQUIPMENTOUTLETNODE,Air,2
 Node,844,MECHANICAL_2_Z44_ZONEEQUIPMENTOUTLETNODE,Air,2
 Node,845,OFFICE_OPEN_2_Z45_ZONEEQUIPMENTOUTLETNODE,Air,2
 Node,846,OFFICE_PRIVATE_2_Z46_ZONEEQUIPMENTOUTLETNODE,Air,2
 Node,847,STORAGE_2_Z47_ZONEEQUIPMENTOUTLETNODE,Air,2
 Node,848,OFFICE_OPEN_2_2_Z48_ZONEEQUIPMENTOUTLETNODE,Air,2
 Node,849,OFFICE_OPEN_2_3_Z49_ZONEEQUIPMENTOUTLETNODE,Air,2
 Node,850,OFFICE_OPEN_2_4_Z50_ZONEEQUIPMENTOUTLETNODE,Air,2
 Node,851,OFFICE_OPEN_2_5_Z51_ZONEEQUIPMENTOUTLETNODE,Air,2
 Node,852,OFFICE_OPEN_2_6_Z52_ZONEEQUIPMENTOUTLETNODE,Air,2
 Node,853,OFFICE_OPEN_2_7_Z53_ZONEEQUIPMENTOUTLETNODE,Air,2
 Node,854,OFFICE_OPEN_2_8_Z54_ZONEEQUIPMENTOUTLETNODE,Air,2
 Node,855,OFFICE_OPEN_2_9_Z55_ZONEEQUIPMENTOUTLETNODE,Air,2
 Node,856,OFFICE_OPEN_2_10_Z56_ZONEEQUIPMENTOUTLETNODE,Air,2
 Node,857,OFFICE_OPEN_2_11_Z57_ZONEEQUIPMENTOUTLETNODE,Air,2
 Node,858,OFFICE_OPEN_2_12_Z58_ZONEEQUIPMENTOUTLETNODE,Air,2
 Node,859,OFFICE_OPEN_2_13_Z59_ZONEEQUIPMENTOUTLETNODE,Air,2
 Node,860,OFFICE_OPEN_2_14_Z60_ZONEEQUIPMENTOUTLETNODE,Air,2
 Node,861,LOBBY_3_Z61_ZONEEQUIPMENTOUTLETNODE,Air,2
 Node,862,CONFERENCE_3_Z62_ZONEEQUIPMENTOUTLETNODE,Air,2
 Node,863,BREAK_ROOM_3_Z63_ZONEEQUIPMENTOUTLETNODE,Air,2
 Node,864,MECHANICAL_3_Z64_ZONEEQUIPMENTOUTLETNODE,Air,2
 Node,865,OFFICE_OPEN_3_Z65_ZONEEQUIPMENTOUTLETNODE,Air,2
 Node,866,OFFICE_PRIVATE_3_Z66_ZONEEQUIPMENTOUTLETNODE,Air,2
 Node,867,STORAGE_3_Z67_ZONEEQUIPMENTOUTLETNODE,Air,2
 Node,868,OFFICE_OPEN_3_2_Z68_ZONEEQUIPMENTOUTLETNODE,Air,2
 Node,869,OFFICE_OPEN_3_3_Z69_ZONEEQUIPMENTOUTLETNODE,Air,2
 Node,870,OFFICE_OPEN_3_4_Z70_ZONEEQUIPMENTOUTLETNODE,Air,2
 Node,871,OFFICE_OPEN_3_5_Z71_ZONEEQUIPMENTOUTLETNODE,Air,2
 Node,872,OFFICE_OPEN_3_6_Z72_ZONEEQUIPMENTOUTLETNODE,Air,2
 Node,873,OFFICE_OPEN_3_7_Z73_ZONEEQUIPMENTOUTLETNODE,Air,2
 Node,874,OFFICE_OPEN_3_8_Z74_ZONEEQUIPMENTOUTLETNODE,Air,2
 Node,875,OFFICE_OPEN_3_9_Z75_ZONEEQUIPMENTOUTLETNODE,Air,2
 Node,876,OFFICE_OPEN_3_10_Z76_ZONEEQUIPMENTOUTLETNODE,Air,2
 Node,877,OFFICE_OPEN_3_11_Z77_ZONEEQUIPMENTOUTLETNODE,Air,2
 Node,878,OFFICE_OPEN_3_12_Z78_ZONEEQUIPMENTOUTLETNODE,Air,2
 Node,879,OFFICE_OPEN_3_13_Z79_ZONEEQUIPMENTOUTLETNODE,Air,2
 Node,880,OFFICE_OPEN_3_14_Z80_ZONEEQUIPMENTOUTLETNODE,Air,2
 Node,881,LOBBY_4_Z81_ZONEEQUIPMENTOUTLETNODE,Air,2
 Node,882,CONFERENCE_4_Z82_ZONEEQUIPMENTOUTLETNODE,Air,2
 Node,883,BREAK_ROOM_4_Z83_ZONEEQUIPMENTOUTLETNODE,Air,2
 Node,884,MECHANICAL_4_Z84_ZONEEQUIPMENTOUTLETNODE,Air,2
 Node,885,OFFICE_OPEN_4_Z85_ZONEEQUIPMENTOUTLETNODE,Air,2
 Node,886,OFFICE_PRIVATE_4_Z86_ZONEEQUIPMENTOUTLETNODE,Air,2
 Node,887,STORAGE_4_Z87_ZONEEQUIPMENTOUTLETNODE,Air,2
 Node,888,OFFICE_OPEN_4_2_Z88_ZONEEQUIPMENTOUTLETNODE,Air,2
 Node,889,OFFICE_OPEN_4_3_Z89_ZONEEQUIPMENTOUTLETNODE,Air,2
 Node,890,OFFICE_OPEN_4_4_Z90_ZONEEQUIPMENTOUTLETNODE,Air,2
 Node,891,OFFICE_OPEN_4_5_Z91_ZONEEQUIPMENTOUTLETNODE,Air,2
 Node,892,OFFICE_OPEN_4_6_Z92_ZONEEQUIPMENTOUTLETNODE,Air,2
 Node,893,OFFICE_OPEN_4_7_Z93_ZONEEQUIPMENTOUTLETNODE,Air,2
 Node,894,OFFICE_OPEN_4_8_Z94_ZONEEQUIPMENTOUTLETNODE,Air,2
 Node,895,OFFICE_OPEN_4_9_Z95_ZONEEQUIPMENTOUTLETNODE,Air,2
 Node,896,OFFICE_OPEN_4_10_Z96_ZONEEQUIPMENTOUTLETNODE,Air,2
 Node,897,OFFICE_OPEN_4_11_Z97_ZONEEQUIPMENTOUTLETNODE,Air,2
 Node,898,OFFICE_OPEN_4_12_Z98_ZONEEQUIPMENTOUTLETNODE,Air,2
 Node,899,OFFICE_OPEN_4_13_Z99_ZONEEQUIPMENTOUTLETNODE,Air,2
 Node,900,OFFICE_OPEN_4_14_Z100_ZONEEQUIPMENTOUTLETNODE,Air,2
 Node,901,LOBBY_0_Z1_TERMINALINLET,Air,1
 Node,902,CONFERENCE_0_Z2_TERMINALINLET,Air,1
 Node,903,BREAK_ROOM_0_Z3_TERMINALINLET,Air,1
 Node,904,MECHANICAL_0_Z4_TERMINALINLET,Air,1
 Node,905,OFFICE_OPEN_0_Z5_TERMINALINLET,Air,1
 Node,906,OFFICE_PRIVATE_0_Z6_TERMINALINLET,Air,1
 Node,907,STORAGE_0_Z7_TERMINALINLET,Air,1
 Node,908,OFFICE_OPEN_0_2_Z8_TERMINALINLET,Air,1
 Node,909,OFFICE_OPEN_0_3_Z9_TERMINALINLET,Air,1
 Node,910,OFFICE_OPEN_0_4_Z10_TERMINALINLET,Air,1
 Node,911,OFFICE_OPEN_0_5_Z11_TERMINALINLET,Air,1
 Node,912,OFFICE_OPEN_0_6_Z12_TERMINALINLET,Air,1
 Node,913,OFFICE_OPEN_0_7_Z13_TERMINALINLET,Air,1
 Node,914,OFFICE_OPEN_0_8_Z14_TERMINALINLET,Air,1
 Node,915,OFFICE_OPEN_0_9_Z15_TERMINALINLET,Air,1
 Node,916,OFFICE_OPEN_0_10_Z16_TERMINALINLET,Air,1
 Node,917,OFFICE_OPEN_0_11_Z17_TERMINALINLET,Air,1
 Node,918,OFFICE_OPEN_0_12_Z18_TERMINALINLET,Air,1
 Node,919,OFFICE_OPEN_0_13_Z19_TERMINALINLET,Air,1
 Node,920,OFFICE_OPEN_0_14_Z20_TERMINALINLET,Air,1
 Node,921,LOBBY_1_Z21_TERMINALINLET,Air,1
 Node,922,CONFERENCE_1_Z22_TERMINALINLET,Air,1
 Node,923,BREAK_ROOM_1_Z23_TERMINALINLET,Air,1
 Node,924,MECHANICAL_1_Z24_TERMINALINLET,Air,1
 Node,925,OFFICE_OPEN_1_Z25_TERMINALINLET,Air,1
 Node,926,OFFICE_PRIVATE_1_Z26_TERMINALINLET,Air,1
 Node,927,STORAGE_1_Z27_TERMINALINLET,Air,1
 Node,928,OFFICE_OPEN_1_2_Z28_TERMINALINLET,Air,1
 Node,929,OFFICE_OPEN_1_3_Z29_TERMINALINLET,Air,1
 Node,930,OFFICE_OPEN_1_4_Z30_TERMINALINLET,Air,1
 Node,931,OFFICE_OPEN_1_5_Z31_TERMINALINLET,Air,1
 Node,932,OFFICE_OPEN_1_6_Z32_TERMINALINLET,Air,1
 Node,933,OFFICE_OPEN_1_7_Z33_TERMINALINLET,Air,1
 Node,934,OFFICE_OPEN_1_8_Z34_TERMINALINLET,Air,1
 Node,935,OFFICE_OPEN_1_9_Z35_TERMINALINLET,Air,1
 Node,936,OFFICE_OPEN_1_10_Z36_TERMINALINLET,Air,1
 Node,937,OFFICE_OPEN_1_11_Z37_TERMINALINLET,Air,1
 Node,938,OFFICE_OPEN_1_12_Z38_TERMINALINLET,Air,1
 Node,939,OFFICE_OPEN_1_13_Z39_TERMINALINLET,Air,1
 Node,940,OFFICE_OPEN_1_14_Z40_TERMINALINLET,Air,1
 Node,941,LOBBY_2_Z41_TERMINALINLET,Air,1
 Node,942,CONFERENCE_2_Z42_TERMINALINLET,Air,1
 Node,943,BREAK_ROOM_2_Z43_TERMINALINLET,Air,1
 Node,944,MECHANICAL_2_Z44_TERMINALINLET,Air,1
 Node,945,OFFICE_OPEN_2_Z45_TERMINALINLET,Air,1
 Node,946,OFFICE_PRIVATE_2_Z46_TERMINALINLET,Air,1
 Node,947,STORAGE_2_Z47_TERMINALINLET,Air,1
 Node,948,OFFICE_OPEN_2_2_Z48_TERMINALINLET,Air,1
 Node,949,OFFICE_OPEN_2_3_Z49_TERMINALINLET,Air,1
 Node,950,OFFICE_OPEN_2_4_Z50_TERMINALINLET,Air,1
 Node,951,OFFICE_OPEN_2_5_Z51_TERMINALINLET,Air,1
 Node,952,OFFICE_OPEN_2_6_Z52_TERMINALINLET,Air,1
 Node,953,OFFICE_OPEN_2_7_Z53_TERMINALINLET,Air,1
 Node,954,OFFICE_OPEN_2_8_Z54_TERMINALINLET,Air,1
 Node,955,OFFICE_OPEN_2_9_Z55_TERMINALINLET,Air,1
 Node,956,OFFICE_OPEN_2_10_Z56_TERMINALINLET,Air,1
 Node,957,OFFICE_OPEN_2_11_Z57_TERMINALINLET,Air,1
 Node,958,OFFICE_OPEN_2_12_Z58_TERMINALINLET,Air,1
 Node,959,OFFICE_OPEN_2_13_Z59_TERMINALINLET,Air,1
 Node,960,OFFICE_OPEN_2_14_Z60_TERMINALINLET,Air,1
 Node,961,LOBBY_3_Z61_TERMINALINLET,Air,1
 Node,962,CONFERENCE_3_Z62_TERMINALINLET,Air,1
 Node,963,BREAK_ROOM_3_Z63_TERMINALINLET,Air,1
 Node,964,MECHANICAL_3_Z64_TERMINALINLET,Air,1
 Node,965,OFFICE_OPEN_3_Z65_TERMINALINLET,Air,1
 Node,966,OFFICE_PRIVATE_3_Z66_TERMINALINLET,Air,1
 Node,967,STORAGE_3_Z67_TERMINALINLET,Air,1
 Node,968,OFFICE_OPEN_3_2_Z68_TERMINALINLET,Air,1
 Node,969,OFFICE_OPEN_3_3_Z69_TERMINALINLET,Air,1
 Node,970,OFFICE_OPEN_3_4_Z70_TERMINALINLET,Air,1
 Node,971,OFFICE_OPEN_3_5_Z71_TERMINALINLET,Air,1
 Node,972,OFFICE_OPEN_3_6_Z72_TERMINALINLET,Air,1
 Node,973,OFFICE_OPEN_3_7_Z73_TERMINALINLET,Air,1
 Node,974,OFFICE_OPEN_3_8_Z74_TERMINALINLET,Air,1
 Node,975,OFFICE_OPEN_3_9_Z75_TERMINALINLET,Air,1
 Node,976,OFFICE_OPEN_3_10_Z76_TERMINALINLET,Air,1
 Node,977,OFFICE_OPEN_3_11_Z77_TERMINALINLET,Air,1
 Node,978,OFFICE_OPEN_3_12_Z78_TERMINALINLET,Air,1
 Node,979,OFFICE_OPEN_3_13_Z79_TERMINALINLET,Air,1
 Node,980,OFFICE_OPEN_3_14_Z80_TERMINALINLET,Air,1
 Node,981,LOBBY_4_Z81_TERMINALINLET,Air,1
 Node,982,CONFERENCE_4_Z82_TERMINALINLET,Air,1
 Node,983,BREAK_ROOM_4_Z83_TERMINALINLET,Air,1
 Node,984,MECHANICAL_4_Z84_TERMINALINLET,Air,1
 Node,985,OFFICE_OPEN_4_Z85_TERMINALINLET,Air,1
 Node,986,OFFICE_PRIVATE_4_Z86_TERMINALINLET,Air,1
 Node,987,STORAGE_4_Z87_TERMINALINLET,Air,1
 Node,988,OFFICE_OPEN_4_2_Z88_TERMINALINLET,Air,1
 Node,989,OFFICE_OPEN_4_3_Z89_TERMINALINLET,Air,1
 Node,990,OFFICE_OPEN_4_4_Z90_TERMINALINLET,Air,1
 Node,991,OFFICE_OPEN_4_5_Z91_TERMINALINLET,Air,1
 Node,992,OFFICE_OPEN_4_6_Z92_TERMINALINLET,Air,1
 Node,993,OFFICE_OPEN_4_7_Z93_TERMINALINLET,Air,1
 Node,994,OFFICE_OPEN_4_8_Z94_TERMINALINLET,Air,1
 Node,995,OFFICE_OPEN_4_9_Z95_TERMINALINLET,Air,1
 Node,996,OFFICE_OPEN_4_10_Z96_TERMINALINLET,Air,1
 Node,997,OFFICE_OPEN_4_11_Z97_TERMINALINLET,Air,1
 Node,998,OFFICE_OPEN_4_12_Z98_TERMINALINLET,Air,1
 Node,999,OFFICE_OPEN_4_13_Z99_TERMINALINLET,Air,1
 Node,1000,OFFICE_OPEN_4_14_Z100_TERMINALINLET,Air,1
 Node,1001,LOBBY_0_Z1_TERMINALOUTLET,Air,1
 Node,1002,CONFERENCE_0_Z2_TERMINALOUTLET,Air,1
 Node,1003,BREAK_ROOM_0_Z3_TERMINALOUTLET,Air,1
 Node,1004,MECHANICAL_0_Z4_TERMINALOUTLET,Air,1
 Node,1005,OFFICE_OPEN_0_Z5_TERMINALOUTLET,Air,1
 Node,1006,OFFICE_PRIVATE_0_Z6_TERMINALOUTLET,Air,1
 Node,1007,STORAGE_0_Z7_TERMINALOUTLET,Air,1
 Node,1008,OFFICE_OPEN_0_2_Z8_TERMINALOUTLET,Air,1
 Node,1009,OFFICE_OPEN_0_3_Z9_TERMINALOUTLET,Air,1
 Node,1010,OFFICE_OPEN_0_4_Z10_TERMINALOUTLET,Air,1
 Node,1011,OFFICE_OPEN_0_5_Z11_TERMINALOUTLET,Air,1
 Node,1012,OFFICE_OPEN_0_6_Z12_TERMINALOUTLET,Air,1
 Node,1013,OFFICE_OPEN_0_7_Z13_TERMINALOUTLET,Air,1
 Node,1014,OFFICE_OPEN_0_8_Z14_TERMINALOUTLET,Air,1
 Node,1015,OFFICE_OPEN_0_9_Z15_TERMINALOUTLET,Air,1
 Node,1016,OFFICE_OPEN_0_10_Z16_TERMINALOUTLET,Air,1
 Node,1017,OFFICE_OPEN_0_11_Z17_TERMINALOUTLET,Air,1
 Node,1018,OFFICE_OPEN_0_12_Z18_TERMINALOUTLET,Air,1
 Node,1019,OFFICE_OPEN_0_13_Z19_TERMINALOUTLET,Air,1
 Node,1020,OFFICE_OPEN_0_14_Z20_TERMINALOUTLET,Air,1
 Node,1021,LOBBY_1_Z21_TERMINALOUTLET,Air,1
 Node,1022,CONFERENCE_1_Z22_TERMINALOUTLET,Air,1
 Node,1023,BREAK_ROOM_1_Z23_TERMINALOUTLET,Air,1
 Node,1024,MECHANICAL_1_Z24_TERMINALOUTLET,Air,1
 Node,1025,OFFICE_OPEN_1_Z25_TERMINALOUTLET,Air,1
 Node,1026,OFFICE_PRIVATE_1_Z26_TERMINALOUTLET,Air,1
 Node,1027,STORAGE_1_Z27_TERMINALOUTLET,Air,1
 Node,1028,OFFICE_OPEN_1_2_Z28_TERMINALOUTLET,Air,1
 Node,1029,OFFICE_OPEN_1_3_Z29_TERMINALOUTLET,Air,1
 Node,1030,OFFICE_OPEN_1_4_Z30_TERMINALOUTLET,Air,1
 Node,1031,OFFICE_OPEN_1_5_Z31_TERMINALOUTLET,Air,1
 Node,1032,OFFICE_OPEN_1_6_Z32_TERMINALOUTLET,Air,1
 Node,1033,OFFICE_OPEN_1_7_Z33_TERMINALOUTLET,Air,1
 Node,1034,OFFICE_OPEN_1_8_Z34_TERMINALOUTLET,Air,1
 Node,1035,OFFICE_OPEN_1_9_Z35_TERMINALOUTLET,Air,1
 Node,1036,OFFICE_OPEN_1_10_Z36_TERMINALOUTLET,Air,1
 Node,1037,OFFICE_OPEN_1_11_Z37_TERMINALOUTLET,Air,1
 Node,1038,OFFICE_OPEN_1_12_Z38_TERMINALOUTLET,Air,1
 Node,1039,OFFICE_OPEN_1_13_Z39_TERMINALOUTLET,Air,1
 Node,1040,OFFICE_OPEN_1_14_Z40_TERMINALOUTLET,Air,1
 Node,1041,LOBBY_2_Z41_TERMINALOUTLET,Air,1
 Node,1042,CONFERENCE_2_Z42_TERMINALOUTLET,Air,1
 Node,1043,BREAK_ROOM_2_Z43_TERMINALOUTLET,Air,1
 Node,1044,MECHANICAL_2_Z44_TERMINALOUTLET,Air,1
 Node,1045,OFFICE_OPEN_2_Z45_TERMINALOUTLET,Air,1
 Node,1046,OFFICE_PRIVATE_2_Z46_TERMINALOUTLET,Air,1
 Node,1047,STORAGE_2_Z47_TERMINALOUTLET,Air,1
 Node,1048,OFFICE_OPEN_2_2_Z48_TERMINALOUTLET,Air,1
 Node,1049,OFFICE_OPEN_2_3_Z49_TERMINALOUTLET,Air,1
 Node,1050,OFFICE_OPEN_2_4_Z50_TERMINALOUTLET,Air,1
 Node,1051,OFFICE_OPEN_2_5_Z51_TERMINALOUTLET,Air,1
 Node,1052,OFFICE_OPEN_2_6_Z52_TERMINALOUTLET,Air,1
 Node,1053,OFFICE_OPEN_2_7_Z53_TERMINALOUTLET,Air,1
 Node,1054,OFFICE_OPEN_2_8_Z54_TERMINALOUTLET,Air,1
 Node,1055,OFFICE_OPEN_2_9_Z55_TERMINALOUTLET,Air,1
 Node,1056,OFFICE_OPEN_2_10_Z56_TERMINALOUTLET,Air,1
 Node,1057,OFFICE_OPEN_2_11_Z57_TERMINALOUTLET,Air,1
 Node,1058,OFFICE_OPEN_2_12_Z58_TERMINALOUTLET,Air,1
 Node,1059,OFFICE_OPEN_2_13_Z59_TERMINALOUTLET,Air,1
 Node,1060,OFFICE_OPEN_2_14_Z60_TERMINALOUTLET,Air,1
 Node,1061,LOBBY_3_Z61_TERMINALOUTLET,Air,1
 Node,1062,CONFERENCE_3_Z62_TERMINALOUTLET,Air,1
 Node,1063,BREAK_ROOM_3_Z63_TERMINALOUTLET,Air,1
 Node,1064,MECHANICAL_3_Z64_TERMINALOUTLET,Air,1
 Node,1065,OFFICE_OPEN_3_Z65_TERMINALOUTLET,Air,1
 Node,1066,OFFICE_PRIVATE_3_Z66_TERMINALOUTLET,Air,1
 Node,1067,STORAGE_3_Z67_TERMINALOUTLET,Air,1
 Node,1068,OFFICE_OPEN_3_2_Z68_TERMINALOUTLET,Air,1
 Node,1069,OFFICE_OPEN_3_3_Z69_TERMINALOUTLET,Air,1
 Node,1070,OFFICE_OPEN_3_4_Z70_TERMINALOUTLET,Air,1
 Node,1071,OFFICE_OPEN_3_5_Z71_TERMINALOUTLET,Air,1
 Node,1072,OFFICE_OPEN_3_6_Z72_TERMINALOUTLET,Air,1
 Node,1073,OFFICE_OPEN_3_7_Z73_TERMINALOUTLET,Air,1
 Node,1074,OFFICE_OPEN_3_8_Z74_TERMINALOUTLET,Air,1
 Node,1075,OFFICE_OPEN_3_9_Z75_TERMINALOUTLET,Air,1
 Node,1076,OFFICE_OPEN_3_10_Z76_TERMINALOUTLET,Air,1
 Node,1077,OFFICE_OPEN_3_11_Z77_TERMINALOUTLET,Air,1
 Node,1078,OFFICE_OPEN_3_12_Z78_TERMINALOUTLET,Air,1
 Node,1079,OFFICE_OPEN_3_13_Z79_TERMINALOUTLET,Air,1
 Node,1080,OFFICE_OPEN_3_14_Z80_TERMINALOUTLET,Air,1
 Node,1081,LOBBY_4_Z81_TERMINALOUTLET,Air,1
 Node,1082,CONFERENCE_4_Z82_TERMINALOUTLET,Air,1
 Node,1083,BREAK_ROOM_4_Z83_TERMINALOUTLET,Air,1
 Node,1084,MECHANICAL_4_Z84_TERMINALOUTLET,Air,1
 Node,1085,OFFICE_OPEN_4_Z85_TERMINALOUTLET,Air,1
 Node,1086,OFFICE_PRIVATE_4_Z86_TERMINALOUTLET,Air,1
 Node,1087,STORAGE_4_Z87_TERMINALOUTLET,Air,1
 Node,1088,OFFICE_OPEN_4_2_Z88_TERMINALOUTLET,Air,1
 Node,1089,OFFICE_OPEN_4_3_Z89_TERMINALOUTLET,Air,1
 Node,1090,OFFICE_OPEN_4_4_Z90_TERMINALOUTLET,Air,1
 Node,1091,OFFICE_OPEN_4_5_Z91_TERMINALOUTLET,Air,1
 Node,1092,OFFICE_OPEN_4_6_Z92_TERMINALOUTLET,Air,1
 Node,1093,OFFICE_OPEN_4_7_Z93_TERMINALOUTLET,Air,1
 Node,1094,OFFICE_OPEN_4_8_Z94_TERMINALOUTLET,Air,1
 Node,1095,OFFICE_OPEN_4_9_Z95_TERMINALOUTLET,Air,1
 Node,1096,OFFICE_OPEN_4_10_Z96_TERMINALOUTLET,Air,1
 Node,1097,OFFICE_OPEN_4_11_Z97_TERMINALOUTLET,Air,1
 Node,1098,OFFICE_OPEN_4_12_Z98_TERMINALOUTLET,Air,1
 Node,1099,OFFICE_OPEN_4_13_Z99_TERMINALOUTLET,Air,1
 Node,1100,OFFICE_OPEN_4_14_Z100_TERMINALOUTLET,Air,1
! ===============================================================
! Suspicious nodes have 0 references.  It is normal for some nodes, however.
! Listing nodes with 0 references (culled from previous list):
! <Suspicious Node>,<NodeNumber>,<Node Name>,<Node Fluid Type>,<# Times Node Referenced After Definition>
 Suspicious Node,501,LOBBY_0 AIR NODE,Air,0
 Suspicious Node,503,CONFERENCE_0 AIR NODE,Air,0
 Suspicious Node,505,BREAK_ROOM_0 AIR NODE,Air,0
 Suspicious Node,507,MECHANICAL_0 AIR NODE,Air,0
 Suspicious Node,509,OFFICE_OPEN_0 AIR NODE,Air,0
 Suspicious Node,511,OFFICE_PRIVATE_0 AIR NODE,Air,0
 Suspicious Node,513,STORAGE_0 AIR NODE,Air,0
 Suspicious Node,515,OFFICE_OPEN_0_2 AIR NODE,Air,0
 Suspicious Node,517,OFFICE_OPEN_0_3 AIR NODE,Air,0
 Suspicious Node,519,OFFICE_OPEN_0_4 AIR NODE,Air,0
 Suspicious Node,521,OFFICE_OPEN_0_5 AIR NODE,Air,0
 Suspicious Node,523,OFFICE_OPEN_0_6 AIR NODE,Air,0
 Suspicious Node,525,OFFICE_OPEN_0_7 AIR NODE,Air,0
 Suspicious Node,527,OFFICE_OPEN_0_8 AIR NODE,Air,0
 Suspicious Node,529,OFFICE_OPEN_0_9 AIR NODE,Air,0
 Suspicious Node,531,OFFICE_OPEN_0_10 AIR NODE,Air,0
 Suspicious Node,533,OFFICE_OPEN_0_11 AIR NODE,Air,0
 Suspicious Node,535,OFFICE_OPEN_0_12 AIR NODE,Air,0
 Suspicious Node,537,OFFICE_OPEN_0_13 AIR NODE,Air,0
 Suspicious Node,539,OFFICE_OPEN_0_14 AIR NODE,Air,0
 Suspicious Node,541,LOBBY_1 AIR NODE,Air,0
 Suspicious Node,543,CONFERENCE_1 AIR NODE,Air,0
 Suspicious Node,545,BREAK_ROOM_1 AIR NODE,Air,0
 Suspicious Node,547,MECHANICAL_1 AIR NODE,Air,0
 Suspicious Node,549,OFFICE_OPEN_1 AIR NODE,Air,0
 Suspicious Node,551,OFFICE_PRIVATE_1 AIR NODE,Air,0
 Suspicious Node,553,STORAGE_1 AIR NODE,Air,0
 Suspicious Node,555,OFFICE_OPEN_1_2 AIR NODE,Air,0
 Suspicious Node,557,OFFICE_OPEN_1_3 AIR NODE,Air,0
 Suspicious Node,559,OFFICE_OPEN_1_4 AIR NODE,Air,0
 Suspicious Node,561,OFFICE_OPEN_1_5 AIR NODE,Air,0
 Suspicious Node,563,OFFICE_OPEN_1_6 AIR NODE,Air,0
 Suspicious Node,565,OFFICE_OPEN_1_7 AIR NODE,Air,0
 Suspicious Node,567,OFFICE_OPEN_1_8 AIR NODE,Air,0
 Suspicious Node,569,OFFICE_OPEN_1_9 AIR NODE,Air,0
 Suspicious Node,571,OFFICE_OPEN_1_10 AIR NODE,Air,0
 Suspicious Node,573,OFFICE_OPEN_1_11 AIR NODE,Air,0
 Suspicious Node,575,OFFICE_OPEN_1_12 AIR NODE,Air,0
 Suspicious Node,577,OFFICE_OPEN_1_13 AIR NODE,Air,0
 Suspicious Node,579,OFFICE_OPEN_1_14 AIR NODE,Air,0
 Suspicious Node,581,LOBBY_2 AIR NODE,Air,0
 Suspicious Node,583,CONFERENCE_2 AIR NODE,Air,0
 Suspicious Node,585,BREAK_ROOM_2 AIR NODE,Air,0
 Suspicious Node,587,MECHANICAL_2 AIR NODE,Air,0
 Suspicious Node,589,OFFICE_OPEN_2 AIR NODE,Air,0
 Suspicious Node,591,OFFICE_PRIVATE_2 AIR NODE,Air,0
 Suspicious Node,593,STORAGE_2 AIR NODE,Air,0
 Suspicious Node,595,OFFICE_OPEN_2_2 AIR NODE,Air,0
 Suspicious Node,597,OFFICE_OPEN_2_3 AIR NODE,Air,0
 Suspicious Node,599,OFFICE_OPEN_2_4 AIR NODE,Air,0
 Suspicious Node,601,OFFICE_OPEN_2_5 AIR NODE,Air,0
 Suspicious Node,603,OFFICE_OPEN_2_6 AIR NODE,Air,0
 Suspicious Node,605,OFFICE_OPEN_2_7 AIR NODE,Air,0
 Suspicious Node,607,OFFICE_OPEN_2_8 AIR NODE,Air,0
 Suspicious Node,609,OFFICE_OPEN_2_9 AIR NODE,Air,0
 Suspicious Node,611,OFFICE_OPEN_2_10 AIR NODE,Air,0
 Suspicious Node,613,OFFICE_OPEN_2_11 AIR NODE,Air,0
 Suspicious Node,615,OFFICE_OPEN_2_12 AIR NODE,Air,0
 Suspicious Node,617,OFFICE_OPEN_2_13 AIR NODE,Air,0
 Suspicious Node,619,OFFICE_OPEN_2_14 AIR NODE,Air,0
 Suspicious Node,621,LOBBY_3 AIR NODE,Air,0
 Suspicious Node,623,CONFERENCE_3 AIR NODE,Air,0
 Suspicious Node,625,BREAK_ROOM_3 AIR NODE,Air,0
 Suspicious Node,627,MECHANICAL_3 AIR NODE,Air,0
 Suspicious Node,629,OFFICE_OPEN_3 AIR NODE,Air,0
 Suspicious Node,631,OFFICE_PRIVATE_3 AIR NODE,Air,0
 Suspicious Node,633,STORAGE_3 AIR NODE,Air,0
 Suspicious Node,635,OFFICE_OPEN_3_2 AIR NODE,Air,0
 Suspicious Node,637,OFFICE_OPEN_3_3 AIR NODE,Air,0
 Suspicious Node,639,OFFICE_OPEN_3_4 AIR NODE,Air,0
 Suspicious Node,641,OFFICE_OPEN_3_5 AIR NODE,Air,0
 Suspicious Node,643,OFFICE_OPEN_3_6 AIR NODE,Air,0
 Suspicious Node,645,OFFICE_OPEN_3_7 AIR NODE,Air,0
 Suspicious Node,647,OFFICE_OPEN_3_8 AIR NODE,Air,0
 Suspicious Node,649,OFFICE_OPEN_3_9 AIR NODE,Air,0
 Suspicious Node,651,OFFICE_OPEN_3_10 AIR NODE,Air,0
 Suspicious Node,653,OFFICE_OPEN_3_11 AIR NODE,Air,0
 Suspicious Node,655,OFFICE_OPEN_3_12 AIR NODE,Air,0
 Suspicious Node,657,OFFICE_OPEN_3_13 AIR NODE,Air,0
 Suspicious Node,659,OFFICE_OPEN_3_14 AIR NODE,Air,0
 Suspicious Node,661,LOBBY_4 AIR NODE,Air,0
 Suspicious Node,663,CONFERENCE_4 AIR NODE,Air,0
 Suspicious Node,665,BREAK_ROOM_4 AIR NODE,Air,0
 Suspicious Node,667,MECHANICAL_4 AIR NODE,Air,0
 Suspicious Node,669,OFFICE_OPEN_4 AIR NODE,Air,0
 Suspicious Node,671,OFFICE_PRIVATE_4 AIR NODE,Air,0
 Suspicious Node,673,STORAGE_4 AIR NODE,Air,0
 Suspicious Node,675,OFFICE_OPEN_4_2 AIR NODE,Air,0
 Suspicious Node,677,OFFICE_OPEN_4_3 AIR NODE,Air,0
 Suspicious Node,679,OFFICE_OPEN_4_4 AIR NODE,Air,0
 Suspicious Node,681,OFFICE_OPEN_4_5 AIR NODE,Air,0
 Suspicious Node,683,OFFICE_OPEN_4_6 AIR NODE,Air,0
 Suspicious Node,685,OFFICE_OPEN_4_7 AIR NODE,Air,0
 Suspicious Node,687,OFFICE_OPEN_4_8 AIR NODE,Air,0
 Suspicious Node,689,OFFICE_OPEN_4_9 AIR NODE,Air,0
 Suspicious Node,691,OFFICE_OPEN_4_10 AIR NODE,Air,0
 Suspicious Node,693,OFFICE_OPEN_4_11 AIR NODE,Air,0
 Suspicious Node,695,OFFICE_OPEN_4_12 AIR NODE,Air,0
 Suspicious Node,697,OFFICE_OPEN_4_13 AIR NODE,Air,0
 Suspicious Node,699,OFFICE_OPEN_4_14 AIR NODE,Air,0
! ===============================================================
! <#Branch Lists>,<Number of Branch Lists>
 #Branch Lists,100
! <Branch List>,<Branch List Count>,<Branch List Name>,<Loop Name>,<Loop Type>,<Number of Branches>
! <Branch>,<Branch Count>,<Branch Name>,<Loop Name>,<Loop Type>,<Branch Inlet Node Name>,<Branch Outlet Node Name>
 Branch List,1,LOBBY_0_Z1_BRANCHLIST,LOBBY_0_Z1_AIRLOOP,Air,1
   Branch,1,LOBBY_0_Z1_MAINBRANCH,LOBBY_0_Z1_AIRLOOP,Air,LOBBY_0_Z1_SUPPLYINLET,LOBBY_0_Z1_SUPPLYEQUIPMENTOUTLETNODE
 Branch List,2,CONFERENCE_0_Z2_BRANCHLIST,CONFERENCE_0_Z2_AIRLOOP,Air,1
   Branch,1,CONFERENCE_0_Z2_MAINBRANCH,CONFERENCE_0_Z2_AIRLOOP,Air,CONFERENCE_0_Z2_SUPPLYINLET,CONFERENCE_0_Z2_SUPPLYEQUIPMENTOUTLETNODE
 Branch List,3,BREAK_ROOM_0_Z3_BRANCHLIST,BREAK_ROOM_0_Z3_AIRLOOP,Air,1
   Branch,1,BREAK_ROOM_0_Z3_MAINBRANCH,BREAK_ROOM_0_Z3_AIRLOOP,Air,BREAK_ROOM_0_Z3_SUPPLYINLET,BREAK_ROOM_0_Z3_SUPPLYEQUIPMENTOUTLETNODE
 Branch List,4,MECHANICAL_0_Z4_BRANCHLIST,MECHANICAL_0_Z4_AIRLOOP,Air,1
   Branch,1,MECHANICAL_0_Z4_MAINBRANCH,MECHANICAL_0_Z4_AIRLOOP,Air,MECHANICAL_0_Z4_SUPPLYINLET,MECHANICAL_0_Z4_SUPPLYEQUIPMENTOUTLETNODE
 Branch List,5,OFFICE_OPEN_0_Z5_BRANCHLIST,OFFICE_OPEN_0_Z5_AIRLOOP,Air,1
   Branch,1,OFFICE_OPEN_0_Z5_MAINBRANCH,OFFICE_OPEN_0_Z5_AIRLOOP,Air,OFFICE_OPEN_0_Z5_SUPPLYINLET,OFFICE_OPEN_0_Z5_SUPPLYEQUIPMENTOUTLETNODE
 Branch List,6,OFFICE_PRIVATE_0_Z6_BRANCHLIST,OFFICE_PRIVATE_0_Z6_AIRLOOP,Air,1
   Branch,1,OFFICE_PRIVATE_0_Z6_MAINBRANCH,OFFICE_PRIVATE_0_Z6_AIRLOOP,Air,OFFICE_PRIVATE_0_Z6_SUPPLYINLET,OFFICE_PRIVATE_0_Z6_SUPPLYEQUIPMENTOUTLETNODE
 Branch List,7,STORAGE_0_Z7_BRANCHLIST,STORAGE_0_Z7_AIRLOOP,Air,1
   Branch,1,STORAGE_0_Z7_MAINBRANCH,STORAGE_0_Z7_AIRLOOP,Air,STORAGE_0_Z7_SUPPLYINLET,STORAGE_0_Z7_SUPPLYEQUIPMENTOUTLETNODE
 Branch List,8,OFFICE_OPEN_0_2_Z8_BRANCHLIST,OFFICE_OPEN_0_2_Z8_AIRLOOP,Air,1
   Branch,1,OFFICE_OPEN_0_2_Z8_MAINBRANCH,OFFICE_OPEN_0_2_Z8_AIRLOOP,Air,OFFICE_OPEN_0_2_Z8_SUPPLYINLET,OFFICE_OPEN_0_2_Z8_SUPPLYEQUIPMENTOUTLETNODE
 Branch List,9,OFFICE_OPEN_0_3_Z9_BRANCHLIST,OFFICE_OPEN_0_3_Z9_AIRLOOP,Air,1
   Branch,1,OFFICE_OPEN_0_3_Z9_MAINBRANCH,OFFICE_OPEN_0_3_Z9_AIRLOOP,Air,OFFICE_OPEN_0_3_Z9_SUPPLYINLET,OFFICE_OPEN_0_3_Z9_SUPPLYEQUIPMENTOUTLETNODE
 Branch List,10,OFFICE_OPEN_0_4_Z10_BRANCHLIST,OFFICE_OPEN_0_4_Z10_AIRLOOP,Air,1
   Branch,1,OFFICE_OPEN_0_4_Z10_MAINBRANCH,OFFICE_OPEN_0_4_Z10_AIRLOOP,Air,OFFICE_OPEN_0_4_Z10_SUPPLYINLET,OFFICE_OPEN_0_4_Z10_SUPPLYEQUIPMENTOUTLETNODE
 Branch List,11,OFFICE_OPEN_0_5_Z11_BRANCHLIST,OFFICE_OPEN_0_5_Z11_AIRLOOP,Air,1
   Branch,1,OFFICE_OPEN_0_5_Z11_MAINBRANCH,OFFICE_OPEN_0_5_Z11_AIRLOOP,Air,OFFICE_OPEN_0_5_Z11_SUPPLYINLET,OFFICE_OPEN_0_5_Z11_SUPPLYEQUIPMENTOUTLETNODE
 Branch List,12,OFFICE_OPEN_0_6_Z12_BRANCHLIST,OFFICE_OPEN_0_6_Z12_AIRLOOP,Air,1
   Branch,1,OFFICE_OPEN_0_6_Z12_MAINBRANCH,OFFICE_OPEN_0_6_Z12_AIRLOOP,Air,OFFICE_OPEN_0_6_Z12_SUPPLYINLET,OFFICE_OPEN_0_6_Z12_SUPPLYEQUIPMENTOUTLETNODE
 Branch List,13,OFFICE_OPEN_0_7_Z13_BRANCHLIST,OFFICE_OPEN_0_7_Z13_AIRLOOP,Air,1
   Branch,1,OFFICE_OPEN_0_7_Z13_MAINBRANCH,OFFICE_OPEN_0_7_Z13_AIRLOOP,Air,OFFICE_OPEN_0_7_Z13_SUPPLYINLET,OFFICE_OPEN_0_7_Z13_SUPPLYEQUIPMENTOUTLETNODE
 Branch List,14,OFFICE_OPEN_0_8_Z14_BRANCHLIST,OFFICE_OPEN_0_8_Z14_AIRLOOP,Air,1
   Branch,1,OFFICE_OPEN_0_8_Z14_MAINBRANCH,OFFICE_OPEN_0_8_Z14_AIRLOOP,Air,OFFICE_OPEN_0_8_Z14_SUPPLYINLET,OFFICE_OPEN_0_8_Z14_SUPPLYEQUIPMENTOUTLETNODE
 Branch List,15,OFFICE_OPEN_0_9_Z15_BRANCHLIST,OFFICE_OPEN_0_9_Z15_AIRLOOP,Air,1
   Branch,1,OFFICE_OPEN_0_9_Z15_MAINBRANCH,OFFICE_OPEN_0_9_Z15_AIRLOOP,Air,OFFICE_OPEN_0_9_Z15_SUPPLYINLET,OFFICE_OPEN_0_9_Z15_SUPPLYEQUIPMENTOUTLETNODE
 Branch List,16,OFFICE_OPEN_0_10_Z16_BRANCHLIST,OFFICE_OPEN_0_10_Z16_AIRLOOP,Air,1
   Branch,1,OFFICE_OPEN_0_10_Z16_MAINBRANCH,OFFICE_OPEN_0_10_Z16_AIRLOOP,Air,OFFICE_OPEN_0_10_Z16_SUPPLYINLET,OFFICE_OPEN_0_10_Z16_SUPPLYEQUIPMENTOUTLETNODE
 Branch List,17,OFFICE_OPEN_0_11_Z17_BRANCHLIST,OFFICE_OPEN_0_11_Z17_AIRLOOP,Air,1
   Branch,1,OFFICE_OPEN_0_11_Z17_MAINBRANCH,OFFICE_OPEN_0_11_Z17_AIRLOOP,Air,OFFICE_OPEN_0_11_Z17_SUPPLYINLET,OFFICE_OPEN_0_11_Z17_SUPPLYEQUIPMENTOUTLETNODE
 Branch List,18,OFFICE_OPEN_0_12_Z18_BRANCHLIST,OFFICE_OPEN_0_12_Z18_AIRLOOP,Air,1
   Branch,1,OFFICE_OPEN_0_12_Z18_MAINBRANCH,OFFICE_OPEN_0_12_Z18_AIRLOOP,Air,OFFICE_OPEN_0_12_Z18_SUPPLYINLET,OFFICE_OPEN_0_12_Z18_SUPPLYEQUIPMENTOUTLETNODE
 Branch List,19,OFFICE_OPEN_0_13_Z19_BRANCHLIST,OFFICE_OPEN_0_13_Z19_AIRLOOP,Air,1
   Branch,1,OFFICE_OPEN_0_13_Z19_MAINBRANCH,OFFICE_OPEN_0_13_Z19_AIRLOOP,Air,OFFICE_OPEN_0_13_Z19_SUPPLYINLET,OFFICE_OPEN_0_13_Z19_SUPPLYEQUIPMENTOUTLETNODE
 Branch List,20,OFFICE_OPEN_0_14_Z20_BRANCHLIST,OFFICE_OPEN_0_14_Z20_AIRLOOP,Air,1
   Branch,1,OFFICE_OPEN_0_14_Z20_MAINBRANCH,OFFICE_OPEN_0_14_Z20_AIRLOOP,Air,OFFICE_OPEN_0_14_Z20_SUPPLYINLET,OFFICE_OPEN_0_14_Z20_SUPPLYEQUIPMENTOUTLETNODE
 Branch List,21,LOBBY_1_Z21_BRANCHLIST,LOBBY_1_Z21_AIRLOOP,Air,1
   Branch,1,LOBBY_1_Z21_MAINBRANCH,LOBBY_1_Z21_AIRLOOP,Air,LOBBY_1_Z21_SUPPLYINLET,LOBBY_1_Z21_SUPPLYEQUIPMENTOUTLETNODE
 Branch List,22,CONFERENCE_1_Z22_BRANCHLIST,CONFERENCE_1_Z22_AIRLOOP,Air,1
   Branch,1,CONFERENCE_1_Z22_MAINBRANCH,CONFERENCE_1_Z22_AIRLOOP,Air,CONFERENCE_1_Z22_SUPPLYINLET,CONFERENCE_1_Z22_SUPPLYEQUIPMENTOUTLETNODE
 Branch List,23,BREAK_ROOM_1_Z23_BRANCHLIST,BREAK_ROOM_1_Z23_AIRLOOP,Air,1
   Branch,1,BREAK_ROOM_1_Z23_MAINBRANCH,BREAK_ROOM_1_Z23_AIRLOOP,Air,BREAK_ROOM_1_Z23_SUPPLYINLET,BREAK_ROOM_1_Z23_SUPPLYEQUIPMENTOUTLETNODE
 Branch List,24,MECHANICAL_1_Z24_BRANCHLIST,MECHANICAL_1_Z24_AIRLOOP,Air,1
   Branch,1,MECHANICAL_1_Z24_MAINBRANCH,MECHANICAL_1_Z24_AIRLOOP,Air,MECHANICAL_1_Z24_SUPPLYINLET,MECHANICAL_1_Z24_SUPPLYEQUIPMENTOUTLETNODE
 Branch List,25,OFFICE_OPEN_1_Z25_BRANCHLIST,OFFICE_OPEN_1_Z25_AIRLOOP,Air,1
   Branch,1,OFFICE_OPEN_1_Z25_MAINBRANCH,OFFICE_OPEN_1_Z25_AIRLOOP,Air,OFFICE_OPEN_1_Z25_SUPPLYINLET,OFFICE_OPEN_1_Z25_SUPPLYEQUIPMENTOUTLETNODE
 Branch List,26,OFFICE_PRIVATE_1_Z26_BRANCHLIST,OFFICE_PRIVATE_1_Z26_AIRLOOP,Air,1
   Branch,1,OFFICE_PRIVATE_1_Z26_MAINBRANCH,OFFICE_PRIVATE_1_Z26_AIRLOOP,Air,OFFICE_PRIVATE_1_Z26_SUPPLYINLET,OFFICE_PRIVATE_1_Z26_SUPPLYEQUIPMENTOUTLETNODE
 Branch List,27,STORAGE_1_Z27_BRANCHLIST,STORAGE_1_Z27_AIRLOOP,Air,1
   Branch,1,STORAGE_1_Z27_MAINBRANCH,STORAGE_1_Z27_AIRLOOP,Air,STORAGE_1_Z27_SUPPLYINLET,STORAGE_1_Z27_SUPPLYEQUIPMENTOUTLETNODE
 Branch List,28,OFFICE_OPEN_1_2_Z28_BRANCHLIST,OFFICE_OPEN_1_2_Z28_AIRLOOP,Air,1
   Branch,1,OFFICE_OPEN_1_2_Z28_MAINBRANCH,OFFICE_OPEN_1_2_Z28_AIRLOOP,Air,OFFICE_OPEN_1_2_Z28_SUPPLYINLET,OFFICE_OPEN_1_2_Z28_SUPPLYEQUIPMENTOUTLETNODE
 Branch List,29,OFFICE_OPEN_1_3_Z29_BRANCHLIST,OFFICE_OPEN_1_3_Z29_AIRLOOP,Air,1
   Branch,1,OFFICE_OPEN_1_3_Z29_MAINBRANCH,OFFICE_OPEN_1_3_Z29_AIRLOOP,Air,OFFICE_OPEN_1_3_Z29_SUPPLYINLET,OFFICE_OPEN_1_3_Z29_SUPPLYEQUIPMENTOUTLETNODE
 Branch List,30,OFFICE_OPEN_1_4_Z30_BRANCHLIST,OFFICE_OPEN_1_4_Z30_AIRLOOP,Air,1
   Branch,1,OFFICE_OPEN_1_4_Z30_MAINBRANCH,OFFICE_OPEN_1_4_Z30_AIRLOOP,Air,OFFICE_OPEN_1_4_Z30_SUPPLYINLET,OFFICE_OPEN_1_4_Z30_SUPPLYEQUIPMENTOUTLETNODE
 Branch List,31,OFFICE_OPEN_1_5_Z31_BRANCHLIST,OFFICE_OPEN_1_5_Z31_AIRLOOP,Air,1
   Branch,1,OFFICE_OPEN_1_5_Z31_MAINBRANCH,OFFICE_OPEN_1_5_Z31_AIRLOOP,Air,OFFICE_OPEN_1_5_Z31_SUPPLYINLET,OFFICE_OPEN_1_5_Z31_SUPPLYEQUIPMENTOUTLETNODE
 Branch List,32,OFFICE_OPEN_1_6_Z32_BRANCHLIST,OFFICE_OPEN_1_6_Z32_AIRLOOP,Air,1
   Branch,1,OFFICE_OPEN_1_6_Z32_MAINBRANCH,OFFICE_OPEN_1_6_Z32_AIRLOOP,Air,OFFICE_OPEN_1_6_Z32_SUPPLYINLET,OFFICE_OPEN_1_6_Z32_SUPPLYEQUIPMENTOUTLETNODE
 Branch List,33,OFFICE_OPEN_1_7_Z33_BRANCHLIST,OFFICE_OPEN_1_7_Z33_AIRLOOP,Air,1
   Branch,1,OFFICE_OPEN_1_7_Z33_MAINBRANCH,OFFICE_OPEN_1_7_Z33_AIRLOOP,Air,OFFICE_OPEN_1_7_Z33_SUPPLYINLET,OFFICE_OPEN_1_7_Z33_SUPPLYEQUIPMENTOUTLETNODE
 Branch List,34,OFFICE_OPEN_1_8_Z34_BRANCHLIST,OFFICE_OPEN_1_8_Z34_AIRLOOP,Air,1
   Branch,1,OFFICE_OPEN_1_8_Z34_MAINBRANCH,OFFICE_OPEN_1_8_Z34_AIRLOOP,Air,OFFICE_OPEN_1_8_Z34_SUPPLYINLET,OFFICE_OPEN_1_8_Z34_SUPPLYEQUIPMENTOUTLETNODE
 Branch List,35,OFFICE_OPEN_1_9_Z35_BRANCHLIST,OFFICE_OPEN_1_9_Z35_AIRLOOP,Air,1
   Branch,1,OFFICE_OPEN_1_9_Z35_MAINBRANCH,OFFICE_OPEN_1_9_Z35_AIRLOOP,Air,OFFICE_OPEN_1_9_Z35_SUPPLYINLET,OFFICE_OPEN_1_9_Z35_SUPPLYEQUIPMENTOUTLETNODE
 Branch List,36,OFFICE_OPEN_1_10_Z36_BRANCHLIST,OFFICE_OPEN_1_10_Z36_AIRLOOP,Air,1
   Branch,1,OFFICE_OPEN_1_10_Z36_MAINBRANCH,OFFICE_OPEN_1_10_Z36_AIRLOOP,Air,OFFICE_OPEN_1_10_Z36_SUPPLYINLET,OFFICE_OPEN_1_10_Z36_SUPPLYEQUIPMENTOUTLETNODE
 Branch List,37,OFFICE_OPEN_1_11_Z37_BRANCHLIST,OFFICE_OPEN_1_11_Z37_AIRLOOP,Air,1
   Branch,1,OFFICE_OPEN_1_11_Z37_MAINBRANCH,OFFICE_OPEN_1_11_Z37_AIRLOOP,Air,OFFICE_OPEN_1_11_Z37_SUPPLYINLET,OFFICE_OPEN_1_11_Z37_SUPPLYEQUIPMENTOUTLETNODE
 Branch List,38,OFFICE_OPEN_1_12_Z38_BRANCHLIST,OFFICE_OPEN_1_12_Z38_AIRLOOP,Air,1
   Branch,1,OFFICE_OPEN_1_12_Z38_MAINBRANCH,OFFICE_OPEN_1_12_Z38_AIRLOOP,Air,OFFICE_OPEN_1_12_Z38_SUPPLYINLET,OFFICE_OPEN_1_12_Z38_SUPPLYEQUIPMENTOUTLETNODE
 Branch List,39,OFFICE_OPEN_1_13_Z39_BRANCHLIST,OFFICE_OPEN_1_13_Z39_AIRLOOP,Air,1
   Branch,1,OFFICE_OPEN_1_13_Z39_MAINBRANCH,OFFICE_OPEN_1_13_Z39_AIRLOOP,Air,OFFICE_OPEN_1_13_Z39_SUPPLYINLET,OFFICE_OPEN_1_13_Z39_SUPPLYEQUIPMENTOUTLETNODE
 Branch List,40,OFFICE_OPEN_1_14_Z40_BRANCHLIST,OFFICE_OPEN_1_14_Z40_AIRLOOP,Air,1
   Branch,1,OFFICE_OPEN_1_14_Z40_MAINBRANCH,OFFICE_OPEN_1_14_Z40_AIRLOOP,Air,OFFICE_OPEN_1_14_Z40_SUPPLYINLET,OFFICE_OPEN_1_14_Z40_SUPPLYEQUIPMENTOUTLETNODE
 Branch List,41,LOBBY_2_Z41_BRANCHLIST,LOBBY_2_Z41_AIRLOOP,Air,1
   Branch,1,LOBBY_2_Z41_MAINBRANCH,LOBBY_2_Z41_AIRLOOP,Air,LOBBY_2_Z41_SUPPLYINLET,LOBBY_2_Z41_SUPPLYEQUIPMENTOUTLETNODE
 Branch List,42,CONFERENCE_2_Z42_BRANCHLIST,CONFERENCE_2_Z42_AIRLOOP,Air,1
   Branch,1,CONFERENCE_2_Z42_MAINBRANCH,CONFERENCE_2_Z42_AIRLOOP,Air,CONFERENCE_2_Z42_SUPPLYINLET,CONFERENCE_2_Z42_SUPPLYEQUIPMENTOUTLETNODE
 Branch List,43,BREAK_ROOM_2_Z43_BRANCHLIST,BREAK_ROOM_2_Z43_AIRLOOP,Air,1
   Branch,1,BREAK_ROOM_2_Z43_MAINBRANCH,BREAK_ROOM_2_Z43_AIRLOOP,Air,BREAK_ROOM_2_Z43_SUPPLYINLET,BREAK_ROOM_2_Z43_SUPPLYEQUIPMENTOUTLETNODE
 Branch List,44,MECHANICAL_2_Z44_BRANCHLIST,MECHANICAL_2_Z44_AIRLOOP,Air,1
   Branch,1,MECHANICAL_2_Z44_MAINBRANCH,MECHANICAL_2_Z44_AIRLOOP,Air,MECHANICAL_2_Z44_SUPPLYINLET,MECHANICAL_2_Z44_SUPPLYEQUIPMENTOUTLETNODE
 Branch List,45,OFFICE_OPEN_2_Z45_BRANCHLIST,OFFICE_OPEN_2_Z45_AIRLOOP,Air,1
   Branch,1,OFFICE_OPEN_2_Z45_MAINBRANCH,OFFICE_OPEN_2_Z45_AIRLOOP,Air,OFFICE_OPEN_2_Z45_SUPPLYINLET,OFFICE_OPEN_2_Z45_SUPPLYEQUIPMENTOUTLETNODE
 Branch List,46,OFFICE_PRIVATE_2_Z46_BRANCHLIST,OFFICE_PRIVATE_2_Z46_AIRLOOP,Air,1
   Branch,1,OFFICE_PRIVATE_2_Z46_MAINBRANCH,OFFICE_PRIVATE_2_Z46_AIRLOOP,Air,OFFICE_PRIVATE_2_Z46_SUPPLYINLET,OFFICE_PRIVATE_2_Z46_SUPPLYEQUIPMENTOUTLETNODE
 Branch List,47,STORAGE_2_Z47_BRANCHLIST,STORAGE_2_Z47_AIRLOOP,Air,1
   Branch,1,STORAGE_2_Z47_MAINBRANCH,STORAGE_2_Z47_AIRLOOP,Air,STORAGE_2_Z47_SUPPLYINLET,STORAGE_2_Z47_SUPPLYEQUIPMENTOUTLETNODE
 Branch List,48,OFFICE_OPEN_2_2_Z48_BRANCHLIST,OFFICE_OPEN_2_2_Z48_AIRLOOP,Air,1
   Branch,1,OFFICE_OPEN_2_2_Z48_MAINBRANCH,OFFICE_OPEN_2_2_Z48_AIRLOOP,Air,OFFICE_OPEN_2_2_Z48_SUPPLYINLET,OFFICE_OPEN_2_2_Z48_SUPPLYEQUIPMENTOUTLETNODE
 Branch List,49,OFFICE_OPEN_2_3_Z49_BRANCHLIST,OFFICE_OPEN_2_3_Z49_AIRLOOP,Air,1
   Branch,1,OFFICE_OPEN_2_3_Z49_MAINBRANCH,OFFICE_OPEN_2_3_Z49_AIRLOOP,Air,OFFICE_OPEN_2_3_Z49_SUPPLYINLET,OFFICE_OPEN_2_3_Z49_SUPPLYEQUIPMENTOUTLETNODE
 Branch List,50,OFFICE_OPEN_2_4_Z50_BRANCHLIST,OFFICE_OPEN_2_4_Z50_AIRLOOP,Air,1
   Branch,1,OFFICE_OPEN_2_4_Z50_MAINBRANCH,OFFICE_OPEN_2_4_Z50_AIRLOOP,Air,OFFICE_OPEN_2_4_Z50_SUPPLYINLET,OFFICE_OPEN_2_4_Z50_SUPPLYEQUIPMENTOUTLETNODE
 Branch List,51,OFFICE_OPEN_2_5_Z51_BRANCHLIST,OFFICE_OPEN_2_5_Z51_AIRLOOP,Air,1
   Branch,1,OFFICE_OPEN_2_5_Z51_MAINBRANCH,OFFICE_OPEN_2_5_Z51_AIRLOOP,Air,OFFICE_OPEN_2_5_Z51_SUPPLYINLET,OFFICE_OPEN_2_5_Z51_SUPPLYEQUIPMENTOUTLETNODE
 Branch List,52,OFFICE_OPEN_2_6_Z52_BRANCHLIST,OFFICE_OPEN_2_6_Z52_AIRLOOP,Air,1
   Branch,1,OFFICE_OPEN_2_6_Z52_MAINBRANCH,OFFICE_OPEN_2_6_Z52_AIRLOOP,Air,OFFICE_OPEN_2_6_Z52_SUPPLYINLET,OFFICE_OPEN_2_6_Z52_SUPPLYEQUIPMENTOUTLETNODE
 Branch List,53,OFFICE_OPEN_2_7_Z53_BRANCHLIST,OFFICE_OPEN_2_7_Z53_AIRLOOP,Air,1
   Branch,1,OFFICE_OPEN_2_7_Z53_MAINBRANCH,OFFICE_OPEN_2_7_Z53_AIRLOOP,Air,OFFICE_OPEN_2_7_Z53_SUPPLYINLET,OFFICE_OPEN_2_7_Z53_SUPPLYEQUIPMENTOUTLETNODE
 Branch List,54,OFFICE_OPEN_2_8_Z54_BRANCHLIST,OFFICE_OPEN_2_8_Z54_AIRLOOP,Air,1
   Branch,1,OFFICE_OPEN_2_8_Z54_MAINBRANCH,OFFICE_OPEN_2_8_Z54_AIRLOOP,Air,OFFICE_OPEN_2_8_Z54_SUPPLYINLET,OFFICE_OPEN_2_8_Z54_SUPPLYEQUIPMENTOUTLETNODE
 Branch List,55,OFFICE_OPEN_2_9_Z55_BRANCHLIST,OFFICE_OPEN_2_9_Z55_AIRLOOP,Air,1
   Branch,1,OFFICE_OPEN_2_9_Z55_MAINBRANCH,OFFICE_OPEN_2_9_Z55_AIRLOOP,Air,OFFICE_OPEN_2_9_Z55_SUPPLYINLET,OFFICE_OPEN_2_9_Z55_SUPPLYEQUIPMENTOUTLETNODE
 Branch List,56,OFFICE_OPEN_2_10_Z56_BRANCHLIST,OFFICE_OPEN_2_10_Z56_AIRLOOP,Air,1
   Branch,1,OFFICE_OPEN_2_10_Z56_MAINBRANCH,OFFICE_OPEN_2_10_Z56_AIRLOOP,Air,OFFICE_OPEN_2_10_Z56_SUPPLYINLET,OFFICE_OPEN_2_10_Z56_SUPPLYEQUIPMENTOUTLETNODE
 Branch List,57,OFFICE_OPEN_2_11_Z57_BRANCHLIST,OFFICE_OPEN_2_11_Z57_AIRLOOP,Air,1
   Branch,1,OFFICE_OPEN_2_11_Z57_MAINBRANCH,OFFICE_OPEN_2_11_Z57_AIRLOOP,Air,OFFICE_OPEN_2_11_Z57_SUPPLYINLET,OFFICE_OPEN_2_11_Z57_SUPPLYEQUIPMENTOUTLETNODE
 Branch List,58,OFFICE_OPEN_2_12_Z58_BRANCHLIST,OFFICE_OPEN_2_12_Z58_AIRLOOP,Air,1
   Branch,1,OFFICE_OPEN_2_12_Z58_MAINBRANCH,OFFICE_OPEN_2_12_Z58_AIRLOOP,Air,OFFICE_OPEN_2_12_Z58_SUPPLYINLET,OFFICE_OPEN_2_12_Z58_SUPPLYEQUIPMENTOUTLETNODE
 Branch List,59,OFFICE_OPEN_2_13_Z59_BRANCHLIST,OFFICE_OPEN_2_13_Z59_AIRLOOP,Air,1
   Branch,1,OFFICE_OPEN_2_13_Z59_MAINBRANCH,OFFICE_OPEN_2_13_Z59_AIRLOOP,Air,OFFICE_OPEN_2_13_Z59_SUPPLYINLET,OFFICE_OPEN_2_13_Z59_SUPPLYEQUIPMENTOUTLETNODE
 Branch List,60,OFFICE_OPEN_2_14_Z60_BRANCHLIST,OFFICE_OPEN_2_14_Z60_AIRLOOP,Air,1
   Branch,1,OFFICE_OPEN_2_14_Z60_MAINBRANCH,OFFICE_OPEN_2_14_Z60_AIRLOOP,Air,OFFICE_OPEN_2_14_Z60_SUPPLYINLET,OFFICE_OPEN_2_14_Z60_SUPPLYEQUIPMENTOUTLETNODE
 Branch List,61,LOBBY_3_Z61_BRANCHLIST,LOBBY_3_Z61_AIRLOOP,Air,1
   Branch,1,LOBBY_3_Z61_MAINBRANCH,LOBBY_3_Z61_AIRLOOP,Air,LOBBY_3_Z61_SUPPLYINLET,LOBBY_3_Z61_SUPPLYEQUIPMENTOUTLETNODE
 Branch List,62,CONFERENCE_3_Z62_BRANCHLIST,CONFERENCE_3_Z62_AIRLOOP,Air,1
   Branch,1,CONFERENCE_3_Z62_MAINBRANCH,CONFERENCE_3_Z62_AIRLOOP,Air,CONFERENCE_3_Z62_SUPPLYINLET,CONFERENCE_3_Z62_SUPPLYEQUIPMENTOUTLETNODE
 Branch List,63,BREAK_ROOM_3_Z63_BRANCHLIST,BREAK_ROOM_3_Z63_AIRLOOP,Air,1
   Branch,1,BREAK_ROOM_3_Z63_MAINBRANCH,BREAK_ROOM_3_Z63_AIRLOOP,Air,BREAK_ROOM_3_Z63_SUPPLYINLET,BREAK_ROOM_3_Z63_SUPPLYEQUIPMENTOUTLETNODE
 Branch List,64,MECHANICAL_3_Z64_BRANCHLIST,MECHANICAL_3_Z64_AIRLOOP,Air,1
   Branch,1,MECHANICAL_3_Z64_MAINBRANCH,MECHANICAL_3_Z64_AIRLOOP,Air,MECHANICAL_3_Z64_SUPPLYINLET,MECHANICAL_3_Z64_SUPPLYEQUIPMENTOUTLETNODE
 Branch List,65,OFFICE_OPEN_3_Z65_BRANCHLIST,OFFICE_OPEN_3_Z65_AIRLOOP,Air,1
   Branch,1,OFFICE_OPEN_3_Z65_MAINBRANCH,OFFICE_OPEN_3_Z65_AIRLOOP,Air,OFFICE_OPEN_3_Z65_SUPPLYINLET,OFFICE_OPEN_3_Z65_SUPPLYEQUIPMENTOUTLETNODE
 Branch List,66,OFFICE_PRIVATE_3_Z66_BRANCHLIST,OFFICE_PRIVATE_3_Z66_AIRLOOP,Air,1
   Branch,1,OFFICE_PRIVATE_3_Z66_MAINBRANCH,OFFICE_PRIVATE_3_Z66_AIRLOOP,Air,OFFICE_PRIVATE_3_Z66_SUPPLYINLET,OFFICE_PRIVATE_3_Z66_SUPPLYEQUIPMENTOUTLETNODE
 Branch List,67,STORAGE_3_Z67_BRANCHLIST,STORAGE_3_Z67_AIRLOOP,Air,1
   Branch,1,STORAGE_3_Z67_MAINBRANCH,STORAGE_3_Z67_AIRLOOP,Air,STORAGE_3_Z67_SUPPLYINLET,STORAGE_3_Z67_SUPPLYEQUIPMENTOUTLETNODE
 Branch List,68,OFFICE_OPEN_3_2_Z68_BRANCHLIST,OFFICE_OPEN_3_2_Z68_AIRLOOP,Air,1
   Branch,1,OFFICE_OPEN_3_2_Z68_MAINBRANCH,OFFICE_OPEN_3_2_Z68_AIRLOOP,Air,OFFICE_OPEN_3_2_Z68_SUPPLYINLET,OFFICE_OPEN_3_2_Z68_SUPPLYEQUIPMENTOUTLETNODE
 Branch List,69,OFFICE_OPEN_3_3_Z69_BRANCHLIST,OFFICE_OPEN_3_3_Z69_AIRLOOP,Air,1
   Branch,1,OFFICE_OPEN_3_3_Z69_MAINBRANCH,OFFICE_OPEN_3_3_Z69_AIRLOOP,Air,OFFICE_OPEN_3_3_Z69_SUPPLYINLET,OFFICE_OPEN_3_3_Z69_SUPPLYEQUIPMENTOUTLETNODE
 Branch List,70,OFFICE_OPEN_3_4_Z70_BRANCHLIST,OFFICE_OPEN_3_4_Z70_AIRLOOP,Air,1
   Branch,1,OFFICE_OPEN_3_4_Z70_MAINBRANCH,OFFICE_OPEN_3_4_Z70_AIRLOOP,Air,OFFICE_OPEN_3_4_Z70_SUPPLYINLET,OFFICE_OPEN_3_4_Z70_SUPPLYEQUIPMENTOUTLETNODE
 Branch List,71,OFFICE_OPEN_3_5_Z71_BRANCHLIST,OFFICE_OPEN_3_5_Z71_AIRLOOP,Air,1
   Branch,1,OFFICE_OPEN_3_5_Z71_MAINBRANCH,OFFICE_OPEN_3_5_Z71_AIRLOOP,Air,OFFICE_OPEN_3_5_Z71_SUPPLYINLET,OFFICE_OPEN_3_5_Z71_SUPPLYEQUIPMENTOUTLETNODE
 Branch List,72,OFFICE_OPEN_3_6_Z72_BRANCHLIST,OFFICE_OPEN_3_6_Z72_AIRLOOP,Air,1
   Branch,1,OFFICE_OPEN_3_6_Z72_MAINBRANCH,OFFICE_OPEN_3_6_Z72_AIRLOOP,Air,OFFICE_OPEN_3_6_Z72_SUPPLYINLET,OFFICE_OPEN_3_6_Z72_SUPPLYEQUIPMENTOUTLETNODE
 Branch List,73,OFFICE_OPEN_3_7_Z73_BRANCHLIST,OFFICE_OPEN_3_7_Z73_AIRLOOP,Air,1
   Branch,1,OFFICE_OPEN_3_7_Z73_MAINBRANCH,OFFICE_OPEN_3_7_Z73_AIRLOOP,Air,OFFICE_OPEN_3_7_Z73_SUPPLYINLET,OFFICE_OPEN_3_7_Z73_SUPPLYEQUIPMENTOUTLETNODE
 Branch List,74,OFFICE_OPEN_3_8_Z74_BRANCHLIST,OFFICE_OPEN_3_8_Z74_AIRLOOP,Air,1
   Branch,1,OFFICE_OPEN_3_8_Z74_MAINBRANCH,OFFICE_OPEN_3_8_Z74_AIRLOOP,Air,OFFICE_OPEN_3_8_Z74_SUPPLYINLET,OFFICE_OPEN_3_8_Z74_SUPPLYEQUIPMENTOUTLETNODE
 Branch List,75,OFFICE_OPEN_3_9_Z75_BRANCHLIST,OFFICE_OPEN_3_9_Z75_AIRLOOP,Air,1
   Branch,1,OFFICE_OPEN_3_9_Z75_MAINBRANCH,OFFICE_OPEN_3_9_Z75_AIRLOOP,Air,OFFICE_OPEN_3_9_Z75_SUPPLYINLET,OFFICE_OPEN_3_9_Z75_SUPPLYEQUIPMENTOUTLETNODE
 Branch List,76,OFFICE_OPEN_3_10_Z76_BRANCHLIST,OFFICE_OPEN_3_10_Z76_AIRLOOP,Air,1
   Branch,1,OFFICE_OPEN_3_10_Z76_MAINBRANCH,OFFICE_OPEN_3_10_Z76_AIRLOOP,Air,OFFICE_OPEN_3_10_Z76_SUPPLYINLET,OFFICE_OPEN_3_10_Z76_SUPPLYEQUIPMENTOUTLETNODE
 Branch List,77,OFFICE_OPEN_3_11_Z77_BRANCHLIST,OFFICE_OPEN_3_11_Z77_AIRLOOP,Air,1
   Branch,1,OFFICE_OPEN_3_11_Z77_MAINBRANCH,OFFICE_OPEN_3_11_Z77_AIRLOOP,Air,OFFICE_OPEN_3_11_Z77_SUPPLYINLET,OFFICE_OPEN_3_11_Z77_SUPPLYEQUIPMENTOUTLETNODE
 Branch List,78,OFFICE_OPEN_3_12_Z78_BRANCHLIST,OFFICE_OPEN_3_12_Z78_AIRLOOP,Air,1
   Branch,1,OFFICE_OPEN_3_12_Z78_MAINBRANCH,OFFICE_OPEN_3_12_Z78_AIRLOOP,Air,OFFICE_OPEN_3_12_Z78_SUPPLYINLET,OFFICE_OPEN_3_12_Z78_SUPPLYEQUIPMENTOUTLETNODE
 Branch List,79,OFFICE_OPEN_3_13_Z79_BRANCHLIST,OFFICE_OPEN_3_13_Z79_AIRLOOP,Air,1
   Branch,1,OFFICE_OPEN_3_13_Z79_MAINBRANCH,OFFICE_OPEN_3_13_Z79_AIRLOOP,Air,OFFICE_OPEN_3_13_Z79_SUPPLYINLET,OFFICE_OPEN_3_13_Z79_SUPPLYEQUIPMENTOUTLETNODE
 Branch List,80,OFFICE_OPEN_3_14_Z80_BRANCHLIST,OFFICE_OPEN_3_14_Z80_AIRLOOP,Air,1
   Branch,1,OFFICE_OPEN_3_14_Z80_MAINBRANCH,OFFICE_OPEN_3_14_Z80_AIRLOOP,Air,OFFICE_OPEN_3_14_Z80_SUPPLYINLET,OFFICE_OPEN_3_14_Z80_SUPPLYEQUIPMENTOUTLETNODE
 Branch List,81,LOBBY_4_Z81_BRANCHLIST,LOBBY_4_Z81_AIRLOOP,Air,1
   Branch,1,LOBBY_4_Z81_MAINBRANCH,LOBBY_4_Z81_AIRLOOP,Air,LOBBY_4_Z81_SUPPLYINLET,LOBBY_4_Z81_SUPPLYEQUIPMENTOUTLETNODE
 Branch List,82,CONFERENCE_4_Z82_BRANCHLIST,CONFERENCE_4_Z82_AIRLOOP,Air,1
   Branch,1,CONFERENCE_4_Z82_MAINBRANCH,CONFERENCE_4_Z82_AIRLOOP,Air,CONFERENCE_4_Z82_SUPPLYINLET,CONFERENCE_4_Z82_SUPPLYEQUIPMENTOUTLETNODE
[...]
 Non-Parent Node Connection,CONFERENCE_1_Z22_COOLC-HEATCNODE,COIL:COOLING:DX:SINGLESPEED,CONFERENCE_1_Z22_COOLINGCOILDX,Outlet,1
 Non-Parent Node Connection,BREAK_ROOM_1_Z23_SUPPLYINLET,COIL:COOLING:DX:SINGLESPEED,BREAK_ROOM_1_Z23_COOLINGCOILDX,Inlet,1
 Non-Parent Node Connection,BREAK_ROOM_1_Z23_COOLC-HEATCNODE,COIL:COOLING:DX:SINGLESPEED,BREAK_ROOM_1_Z23_COOLINGCOILDX,Outlet,1
 Non-Parent Node Connection,MECHANICAL_1_Z24_SUPPLYINLET,COIL:COOLING:DX:SINGLESPEED,MECHANICAL_1_Z24_COOLINGCOILDX,Inlet,1
 Non-Parent Node Connection,MECHANICAL_1_Z24_COOLC-HEATCNODE,COIL:COOLING:DX:SINGLESPEED,MECHANICAL_1_Z24_COOLINGCOILDX,Outlet,1
 Non-Parent Node Connection,OFFICE_OPEN_1_Z25_SUPPLYINLET,COIL:COOLING:DX:SINGLESPEED,OFFICE_OPEN_1_Z25_COOLINGCOILDX,Inlet,1
 Non-Parent Node Connection,OFFICE_OPEN_1_Z25_COOLC-HEATCNODE,COIL:COOLING:DX:SINGLESPEED,OFFICE_OPEN_1_Z25_COOLINGCOILDX,Outlet,1
 Non-Parent Node Connection,OFFICE_PRIVATE_1_Z26_SUPPLYINLET,COIL:COOLING:DX:SINGLESPEED,OFFICE_PRIVATE_1_Z26_COOLINGCOILDX,Inlet,1
 Non-Parent Node Connection,OFFICE_PRIVATE_1_Z26_COOLC-HEATCNODE,COIL:COOLING:DX:SINGLESPEED,OFFICE_PRIVATE_1_Z26_COOLINGCOILDX,Outlet,1
 Non-Parent Node Connection,STORAGE_1_Z27_SUPPLYINLET,COIL:COOLING:DX:SINGLESPEED,STORAGE_1_Z27_COOLINGCOILDX,Inlet,1
 Non-Parent Node Connection,STORAGE_1_Z27_COOLC-HEATCNODE,COIL:COOLING:DX:SINGLESPEED,STORAGE_1_Z27_COOLINGCOILDX,Outlet,1
 Non-Parent Node Connection,OFFICE_OPEN_1_2_Z28_SUPPLYINLET,COIL:COOLING:DX:SINGLESPEED,OFFICE_OPEN_1_2_Z28_COOLINGCOILDX,Inlet,1
 Non-Parent Node Connection,OFFICE_OPEN_1_2_Z28_COOLC-HEATCNODE,COIL:COOLING:DX:SINGLESPEED,OFFICE_OPEN_1_2_Z28_COOLINGCOILDX,Outlet,1
 Non-Parent Node Connection,OFFICE_OPEN_1_3_Z29_SUPPLYINLET,COIL:COOLING:DX:SINGLESPEED,OFFICE_OPEN_1_3_Z29_COOLINGCOILDX,Inlet,1
 Non-Parent Node Connection,OFFICE_OPEN_1_3_Z29_COOLC-HEATCNODE,COIL:COOLING:DX:SINGLESPEED,OFFICE_OPEN_1_3_Z29_COOLINGCOILDX,Outlet,1
 Non-Parent Node Connection,OFFICE_OPEN_1_4_Z30_SUPPLYINLET,COIL:COOLING:DX:SINGLESPEED,OFFICE_OPEN_1_4_Z30_COOLINGCOILDX,Inlet,1
 Non-Parent Node Connection,OFFICE_OPEN_1_4_Z30_COOLC-HEATCNODE,COIL:COOLING:DX:SINGLESPEED,OFFICE_OPEN_1_4_Z30_COOLINGCOILDX,Outlet,1
 Non-Parent Node Connection,OFFICE_OPEN_1_5_Z31_SUPPLYINLET,COIL:COOLING:DX:SINGLESPEED,OFFICE_OPEN_1_5_Z31_COOLINGCOILDX,Inlet,1
 Non-Parent Node Connection,OFFICE_OPEN_1_5_Z31_COOLC-HEATCNODE,COIL:COOLING:DX:SINGLESPEED,OFFICE_OPEN_1_5_Z31_COOLINGCOILDX,Outlet,1
 Non-Parent Node Connection,OFFICE_OPEN_1_6_Z32_SUPPLYINLET,COIL:COOLING:DX:SINGLESPEED,OFFICE_OPEN_1_6_Z32_COOLINGCOILDX,Inlet,1
 Non-Parent Node Connection,OFFICE_OPEN_1_6_Z32_COOLC-HEATCNODE,COIL:COOLING:DX:SINGLESPEED,OFFICE_OPEN_1_6_Z32_COOLINGCOILDX,Outlet,1
 Non-Parent Node Connection,OFFICE_OPEN_1_7_Z33_SUPPLYINLET,COIL:COOLING:DX:SINGLESPEED,OFFICE_OPEN_1_7_Z33_COOLINGCOILDX,Inlet,1
 Non-Parent Node Connection,OFFICE_OPEN_1_7_Z33_COOLC-HEATCNODE,COIL:COOLING:DX:SINGLESPEED,OFFICE_OPEN_1_7_Z33_COOLINGCOILDX,Outlet,1
 Non-Parent Node Connection,OFFICE_OPEN_1_8_Z34_SUPPLYINLET,COIL:COOLING:DX:SINGLESPEED,OFFICE_OPEN_1_8_Z34_COOLINGCOILDX,Inlet,1
 Non-Parent Node Connection,OFFICE_OPEN_1_8_Z34_COOLC-HEATCNODE,COIL:COOLING:DX:SINGLESPEED,OFFICE_OPEN_1_8_Z34_COOLINGCOILDX,Outlet,1
 Non-Parent Node Connection,OFFICE_OPEN_1_9_Z35_SUPPLYINLET,COIL:COOLING:DX:SINGLESPEED,OFFICE_OPEN_1_9_Z35_COOLINGCOILDX,Inlet,1
 Non-Parent Node Connection,OFFICE_OPEN_1_9_Z35_COOLC-HEATCNODE,COIL:COOLING:DX:SINGLESPEED,OFFICE_OPEN_1_9_Z35_COOLINGCOILDX,Outlet,1
 Non-Parent Node Connection,OFFICE_OPEN_1_10_Z36_SUPPLYINLET,COIL:COOLING:DX:SINGLESPEED,OFFICE_OPEN_1_10_Z36_COOLINGCOILDX,Inlet,1
 Non-Parent Node Connection,OFFICE_OPEN_1_10_Z36_COOLC-HEATCNODE,COIL:COOLING:DX:SINGLESPEED,OFFICE_OPEN_1_10_Z36_COOLINGCOILDX,Outlet,1
 Non-Parent Node Connection,OFFICE_OPEN_1_11_Z37_SUPPLYINLET,COIL:COOLING:DX:SINGLESPEED,OFFICE_OPEN_1_11_Z37_COOLINGCOILDX,Inlet,1
 Non-Parent Node Connection,OFFICE_OPEN_1_11_Z37_COOLC-HEATCNODE,COIL:COOLING:DX:SINGLESPEED,OFFICE_OPEN_1_11_Z37_COOLINGCOILDX,Outlet,1
 Non-Parent Node Connection,OFFICE_OPEN_1_12_Z38_SUPPLYINLET,COIL:COOLING:DX:SINGLESPEED,OFFICE_OPEN_1_12_Z38_COOLINGCOILDX,Inlet,1
 Non-Parent Node Connection,OFFICE_OPEN_1_12_Z38_COOLC-HEATCNODE,COIL:COOLING:DX:SINGLESPEED,OFFICE_OPEN_1_12_Z38_COOLINGCOILDX,Outlet,1
 Non-Parent Node Connection,OFFICE_OPEN_1_13_Z39_SUPPLYINLET,COIL:COOLING:DX:SINGLESPEED,OFFICE_OPEN_1_13_Z39_COOLINGCOILDX,Inlet,1
 Non-Parent Node Connection,OFFICE_OPEN_1_13_Z39_COOLC-HEATCNODE,COIL:COOLING:DX:SINGLESPEED,OFFICE_OPEN_1_13_Z39_COOLINGCOILDX,Outlet,1
 Non-Parent Node Connection,OFFICE_OPEN_1_14_Z40_SUPPLYINLET,COIL:COOLING:DX:SINGLESPEED,OFFICE_OPEN_1_14_Z40_COOLINGCOILDX,Inlet,1
 Non-Parent Node Connection,OFFICE_OPEN_1_14_Z40_COOLC-HEATCNODE,COIL:COOLING:DX:SINGLESPEED,OFFICE_OPEN_1_14_Z40_COOLINGCOILDX,Outlet,1
 Non-Parent Node Connection,LOBBY_2_Z41_SUPPLYINLET,COIL:COOLING:DX:SINGLESPEED,LOBBY_2_Z41_COOLINGCOILDX,Inlet,1
 Non-Parent Node Connection,LOBBY_2_Z41_COOLC-HEATCNODE,COIL:COOLING:DX:SINGLESPEED,LOBBY_2_Z41_COOLINGCOILDX,Outlet,1
 Non-Parent Node Connection,CONFERENCE_2_Z42_SUPPLYINLET,COIL:COOLING:DX:SINGLESPEED,CONFERENCE_2_Z42_COOLINGCOILDX,Inlet,1
 Non-Parent Node Connection,CONFERENCE_2_Z42_COOLC-HEATCNODE,COIL:COOLING:DX:SINGLESPEED,CONFERENCE_2_Z42_COOLINGCOILDX,Outlet,1
 Non-Parent Node Connection,BREAK_ROOM_2_Z43_SUPPLYINLET,COIL:COOLING:DX:SINGLESPEED,BREAK_ROOM_2_Z43_COOLINGCOILDX,Inlet,1
 Non-Parent Node Connection,BREAK_ROOM_2_Z43_COOLC-HEATCNODE,COIL:COOLING:DX:SINGLESPEED,BREAK_ROOM_2_Z43_COOLINGCOILDX,Outlet,1
 Non-Parent Node Connection,MECHANICAL_2_Z44_SUPPLYINLET,COIL:COOLING:DX:SINGLESPEED,MECHANICAL_2_Z44_COOLINGCOILDX,Inlet,1
 Non-Parent Node Connection,MECHANICAL_2_Z44_COOLC-HEATCNODE,COIL:COOLING:DX:SINGLESPEED,MECHANICAL_2_Z44_COOLINGCOILDX,Outlet,1
 Non-Parent Node Connection,OFFICE_OPEN_2_Z45_SUPPLYINLET,COIL:COOLING:DX:SINGLESPEED,OFFICE_OPEN_2_Z45_COOLINGCOILDX,Inlet,1
 Non-Parent Node Connection,OFFICE_OPEN_2_Z45_COOLC-HEATCNODE,COIL:COOLING:DX:SINGLESPEED,OFFICE_OPEN_2_Z45_COOLINGCOILDX,Outlet,1
 Non-Parent Node Connection,OFFICE_PRIVATE_2_Z46_SUPPLYINLET,COIL:COOLING:DX:SINGLESPEED,OFFICE_PRIVATE_2_Z46_COOLINGCOILDX,Inlet,1
 Non-Parent Node Connection,OFFICE_PRIVATE_2_Z46_COOLC-HEATCNODE,COIL:COOLING:DX:SINGLESPEED,OFFICE_PRIVATE_2_Z46_COOLINGCOILDX,Outlet,1
 Non-Parent Node Connection,STORAGE_2_Z47_SUPPLYINLET,COIL:COOLING:DX:SINGLESPEED,STORAGE_2_Z47_COOLINGCOILDX,Inlet,1
 Non-Parent Node Connection,STORAGE_2_Z47_COOLC-HEATCNODE,COIL:COOLING:DX:SINGLESPEED,STORAGE_2_Z47_COOLINGCOILDX,Outlet,1
 Non-Parent Node Connection,OFFICE_OPEN_2_2_Z48_SUPPLYINLET,COIL:COOLING:DX:SINGLESPEED,OFFICE_OPEN_2_2_Z48_COOLINGCOILDX,Inlet,1
 Non-Parent Node Connection,OFFICE_OPEN_2_2_Z48_COOLC-HEATCNODE,COIL:COOLING:DX:SINGLESPEED,OFFICE_OPEN_2_2_Z48_COOLINGCOILDX,Outlet,1
 Non-Parent Node Connection,OFFICE_OPEN_2_3_Z49_SUPPLYINLET,COIL:COOLING:DX:SINGLESPEED,OFFICE_OPEN_2_3_Z49_COOLINGCOILDX,Inlet,1
 Non-Parent Node Connection,OFFICE_OPEN_2_3_Z49_COOLC-HEATCNODE,COIL:COOLING:DX:SINGLESPEED,OFFICE_OPEN_2_3_Z49_COOLINGCOILDX,Outlet,1
 Non-Parent Node Connection,OFFICE_OPEN_2_4_Z50_SUPPLYINLET,COIL:COOLING:DX:SINGLESPEED,OFFICE_OPEN_2_4_Z50_COOLINGCOILDX,Inlet,1
 Non-Parent Node Connection,OFFICE_OPEN_2_4_Z50_COOLC-HEATCNODE,COIL:COOLING:DX:SINGLESPEED,OFFICE_OPEN_2_4_Z50_COOLINGCOILDX,Outlet,1
 Non-Parent Node Connection,OFFICE_OPEN_2_5_Z51_SUPPLYINLET,COIL:COOLING:DX:SINGLESPEED,OFFICE_OPEN_2_5_Z51_COOLINGCOILDX,Inlet,1
 Non-Parent Node Connection,OFFICE_OPEN_2_5_Z51_COOLC-HEATCNODE,COIL:COOLING:DX:SINGLESPEED,OFFICE_OPEN_2_5_Z51_COOLINGCOILDX,Outlet,1
 Non-Parent Node Connection,OFFICE_OPEN_2_6_Z52_SUPPLYINLET,COIL:COOLING:DX:SINGLESPEED,OFFICE_OPEN_2_6_Z52_COOLINGCOILDX,Inlet,1
 Non-Parent Node Connection,OFFICE_OPEN_2_6_Z52_COOLC-HEATCNODE,COIL:COOLING:DX:SINGLESPEED,OFFICE_OPEN_2_6_Z52_COOLINGCOILDX,Outlet,1
 Non-Parent Node Connection,OFFICE_OPEN_2_7_Z53_SUPPLYINLET,COIL:COOLING:DX:SINGLESPEED,OFFICE_OPEN_2_7_Z53_COOLINGCOILDX,Inlet,1
 Non-Parent Node Connection,OFFICE_OPEN_2_7_Z53_COOLC-HEATCNODE,COIL:COOLING:DX:SINGLESPEED,OFFICE_OPEN_2_7_Z53_COOLINGCOILDX,Outlet,1
 Non-Parent Node Connection,OFFICE_OPEN_2_8_Z54_SUPPLYINLET,COIL:COOLING:DX:SINGLESPEED,OFFICE_OPEN_2_8_Z54_COOLINGCOILDX,Inlet,1
 Non-Parent Node Connection,OFFICE_OPEN_2_8_Z54_COOLC-HEATCNODE,COIL:COOLING:DX:SINGLESPEED,OFFICE_OPEN_2_8_Z54_COOLINGCOILDX,Outlet,1
 Non-Parent Node Connection,OFFICE_OPEN_2_9_Z55_SUPPLYINLET,COIL:COOLING:DX:SINGLESPEED,OFFICE_OPEN_2_9_Z55_COOLINGCOILDX,Inlet,1
 Non-Parent Node Connection,OFFICE_OPEN_2_9_Z55_COOLC-HEATCNODE,COIL:COOLING:DX:SINGLESPEED,OFFICE_OPEN_2_9_Z55_COOLINGCOILDX,Outlet,1
 Non-Parent Node Connection,OFFICE_OPEN_2_10_Z56_SUPPLYINLET,COIL:COOLING:DX:SINGLESPEED,OFFICE_OPEN_2_10_Z56_COOLINGCOILDX,Inlet,1
 Non-Parent Node Connection,OFFICE_OPEN_2_10_Z56_COOLC-HEATCNODE,COIL:COOLING:DX:SINGLESPEED,OFFICE_OPEN_2_10_Z56_COOLINGCOILDX,Outlet,1
 Non-Parent Node Connection,OFFICE_OPEN_2_11_Z57_SUPPLYINLET,COIL:COOLING:DX:SINGLESPEED,OFFICE_OPEN_2_11_Z57_COOLINGCOILDX,Inlet,1
 Non-Parent Node Connection,OFFICE_OPEN_2_11_Z57_COOLC-HEATCNODE,COIL:COOLING:DX:SINGLESPEED,OFFICE_OPEN_2_11_Z57_COOLINGCOILDX,Outlet,1
 Non-Parent Node Connection,OFFICE_OPEN_2_12_Z58_SUPPLYINLET,COIL:COOLING:DX:SINGLESPEED,OFFICE_OPEN_2_12_Z58_COOLINGCOILDX,Inlet,1
 Non-Parent Node Connection,OFFICE_OPEN_2_12_Z58_COOLC-HEATCNODE,COIL:COOLING:DX:SINGLESPEED,OFFICE_OPEN_2_12_Z58_COOLINGCOILDX,Outlet,1
 Non-Parent Node Connection,OFFICE_OPEN_2_13_Z59_SUPPLYINLET,COIL:COOLING:DX:SINGLESPEED,OFFICE_OPEN_2_13_Z59_COOLINGCOILDX,Inlet,1
 Non-Parent Node Connection,OFFICE_OPEN_2_13_Z59_COOLC-HEATCNODE,COIL:COOLING:DX:SINGLESPEED,OFFICE_OPEN_2_13_Z59_COOLINGCOILDX,Outlet,1
 Non-Parent Node Connection,OFFICE_OPEN_2_14_Z60_SUPPLYINLET,COIL:COOLING:DX:SINGLESPEED,OFFICE_OPEN_2_14_Z60_COOLINGCOILDX,Inlet,1
 Non-Parent Node Connection,OFFICE_OPEN_2_14_Z60_COOLC-HEATCNODE,COIL:COOLING:DX:SINGLESPEED,OFFICE_OPEN_2_14_Z60_COOLINGCOILDX,Outlet,1
 Non-Parent Node Connection,LOBBY_3_Z61_SUPPLYINLET,COIL:COOLING:DX:SINGLESPEED,LOBBY_3_Z61_COOLINGCOILDX,Inlet,1
 Non-Parent Node Connection,LOBBY_3_Z61_COOLC-HEATCNODE,COIL:COOLING:DX:SINGLESPEED,LOBBY_3_Z61_COOLINGCOILDX,Outlet,1
 Non-Parent Node Connection,CONFERENCE_3_Z62_SUPPLYINLET,COIL:COOLING:DX:SINGLESPEED,CONFERENCE_3_Z62_COOLINGCOILDX,Inlet,1
 Non-Parent Node Connection,CONFERENCE_3_Z62_COOLC-HEATCNODE,COIL:COOLING:DX:SINGLESPEED,CONFERENCE_3_Z62_COOLINGCOILDX,Outlet,1
 Non-Parent Node Connection,BREAK_ROOM_3_Z63_SUPPLYINLET,COIL:COOLING:DX:SINGLESPEED,BREAK_ROOM_3_Z63_COOLINGCOILDX,Inlet,1
 Non-Parent Node Connection,BREAK_ROOM_3_Z63_COOLC-HEATCNODE,COIL:COOLING:DX:SINGLESPEED,BREAK_ROOM_3_Z63_COOLINGCOILDX,Outlet,1
 Non-Parent Node Connection,MECHANICAL_3_Z64_SUPPLYINLET,COIL:COOLING:DX:SINGLESPEED,MECHANICAL_3_Z64_COOLINGCOILDX,Inlet,1
 Non-Parent Node Connection,MECHANICAL_3_Z64_COOLC-HEATCNODE,COIL:COOLING:DX:SINGLESPEED,MECHANICAL_3_Z64_COOLINGCOILDX,Outlet,1
 Non-Parent Node Connection,OFFICE_OPEN_3_Z65_SUPPLYINLET,COIL:COOLING:DX:SINGLESPEED,OFFICE_OPEN_3_Z65_COOLINGCOILDX,Inlet,1
 Non-Parent Node Connection,OFFICE_OPEN_3_Z65_COOLC-HEATCNODE,COIL:COOLING:DX:SINGLESPEED,OFFICE_OPEN_3_Z65_COOLINGCOILDX,Outlet,1
 Non-Parent Node Connection,OFFICE_PRIVATE_3_Z66_SUPPLYINLET,COIL:COOLING:DX:SINGLESPEED,OFFICE_PRIVATE_3_Z66_COOLINGCOILDX,Inlet,1
 Non-Parent Node Connection,OFFICE_PRIVATE_3_Z66_COOLC-HEATCNODE,COIL:COOLING:DX:SINGLESPEED,OFFICE_PRIVATE_3_Z66_COOLINGCOILDX,Outlet,1
 Non-Parent Node Connection,STORAGE_3_Z67_SUPPLYINLET,COIL:COOLING:DX:SINGLESPEED,STORAGE_3_Z67_COOLINGCOILDX,Inlet,1
 Non-Parent Node Connection,STORAGE_3_Z67_COOLC-HEATCNODE,COIL:COOLING:DX:SINGLESPEED,STORAGE_3_Z67_COOLINGCOILDX,Outlet,1
 Non-Parent Node Connection,OFFICE_OPEN_3_2_Z68_SUPPLYINLET,COIL:COOLING:DX:SINGLESPEED,OFFICE_OPEN_3_2_Z68_COOLINGCOILDX,Inlet,1
 Non-Parent Node Connection,OFFICE_OPEN_3_2_Z68_COOLC-HEATCNODE,COIL:COOLING:DX:SINGLESPEED,OFFICE_OPEN_3_2_Z68_COOLINGCOILDX,Outlet,1
 Non-Parent Node Connection,OFFICE_OPEN_3_3_Z69_SUPPLYINLET,COIL:COOLING:DX:SINGLESPEED,OFFICE_OPEN_3_3_Z69_COOLINGCOILDX,Inlet,1
 Non-Parent Node Connection,OFFICE_OPEN_3_3_Z69_COOLC-HEATCNODE,COIL:COOLING:DX:SINGLESPEED,OFFICE_OPEN_3_3_Z69_COOLINGCOILDX,Outlet,1
 Non-Parent Node Connection,OFFICE_OPEN_3_4_Z70_SUPPLYINLET,COIL:COOLING:DX:SINGLESPEED,OFFICE_OPEN_3_4_Z70_COOLINGCOILDX,Inlet,1
 Non-Parent Node Connection,OFFICE_OPEN_3_4_Z70_COOLC-HEATCNODE,COIL:COOLING:DX:SINGLESPEED,OFFICE_OPEN_3_4_Z70_COOLINGCOILDX,Outlet,1
 Non-Parent Node Connection,OFFICE_OPEN_3_5_Z71_SUPPLYINLET,COIL:COOLING:DX:SINGLESPEED,OFFICE_OPEN_3_5_Z71_COOLINGCOILDX,Inlet,1
 Non-Parent Node Connection,OFFICE_OPEN_3_5_Z71_COOLC-HEATCNODE,COIL:COOLING:DX:SINGLESPEED,OFFICE_OPEN_3_5_Z71_COOLINGCOILDX,Outlet,1
 Non-Parent Node Connection,OFFICE_OPEN_3_6_Z72_SUPPLYINLET,COIL:COOLING:DX:SINGLESPEED,OFFICE_OPEN_3_6_Z72_COOLINGCOILDX,Inlet,1
 Non-Parent Node Connection,OFFICE_OPEN_3_6_Z72_COOLC-HEATCNODE,COIL:COOLING:DX:SINGLESPEED,OFFICE_OPEN_3_6_Z72_COOLINGCOILDX,Outlet,1
 Non-Parent Node Connection,OFFICE_OPEN_3_7_Z73_SUPPLYINLET,COIL:COOLING:DX:SINGLESPEED,OFFICE_OPEN_3_7_Z73_COOLINGCOILDX,Inlet,1
 Non-Parent Node Connection,OFFICE_OPEN_3_7_Z73_COOLC-HEATCNODE,COIL:COOLING:DX:SINGLESPEED,OFFICE_OPEN_3_7_Z73_COOLINGCOILDX,Outlet,1
 Non-Parent Node Connection,OFFICE_OPEN_3_8_Z74_SUPPLYINLET,COIL:COOLING:DX:SINGLESPEED,OFFICE_OPEN_3_8_Z74_COOLINGCOILDX,Inlet,1
 Non-Parent Node Connection,OFFICE_OPEN_3_8_Z74_COOLC-HEATCNODE,COIL:COOLING:DX:SINGLESPEED,OFFICE_OPEN_3_8_Z74_COOLINGCOILDX,Outlet,1
 Non-Parent Node Connection,OFFICE_OPEN_3_9_Z75_SUPPLYINLET,COIL:COOLING:DX:SINGLESPEED,OFFICE_OPEN_3_9_Z75_COOLINGCOILDX,Inlet,1
 Non-Parent Node Connection,OFFICE_OPEN_3_9_Z75_COOLC-HEATCNODE,COIL:COOLING:DX:SINGLESPEED,OFFICE_OPEN_3_9_Z75_COOLINGCOILDX,Outlet,1
 Non-Parent Node Connection,OFFICE_OPEN_3_10_Z76_SUPPLYINLET,COIL:COOLING:DX:SINGLESPEED,OFFICE_OPEN_3_10_Z76_COOLINGCOILDX,Inlet,1
 Non-Parent Node Connection,OFFICE_OPEN_3_10_Z76_COOLC-HEATCNODE,COIL:COOLING:DX:SINGLESPEED,OFFICE_OPEN_3_10_Z76_COOLINGCOILDX,Outlet,1
 Non-Parent Node Connection,OFFICE_OPEN_3_11_Z77_SUPPLYINLET,COIL:COOLING:DX:SINGLESPEED,OFFICE_OPEN_3_11_Z77_COOLINGCOILDX,Inlet,1
 Non-Parent Node Connection,OFFICE_OPEN_3_11_Z77_COOLC-HEATCNODE,COIL:COOLING:DX:SINGLESPEED,OFFICE_OPEN_3_11_Z77_COOLINGCOILDX,Outlet,1
 Non-Parent Node Connection,OFFICE_OPEN_3_12_Z78_SUPPLYINLET,COIL:COOLING:DX:SINGLESPEED,OFFICE_OPEN_3_12_Z78_COOLINGCOILDX,Inlet,1
 Non-Parent Node Connection,OFFICE_OPEN_3_12_Z78_COOLC-HEATCNODE,COIL:COOLING:DX:SINGLESPEED,OFFICE_OPEN_3_12_Z78_COOLINGCOILDX,Outlet,1
 Non-Parent Node Connection,OFFICE_OPEN_3_13_Z79_SUPPLYINLET,COIL:COOLING:DX:SINGLESPEED,OFFICE_OPEN_3_13_Z79_COOLINGCOILDX,Inlet,1
 Non-Parent Node Connection,OFFICE_OPEN_3_13_Z79_COOLC-HEATCNODE,COIL:COOLING:DX:SINGLESPEED,OFFICE_OPEN_3_13_Z79_COOLINGCOILDX,Outlet,1
 Non-Parent Node Connection,OFFICE_OPEN_3_14_Z80_SUPPLYINLET,COIL:COOLING:DX:SINGLESPEED,OFFICE_OPEN_3_14_Z80_COOLINGCOILDX,Inlet,1
 Non-Parent Node Connection,OFFICE_OPEN_3_14_Z80_COOLC-HEATCNODE,COIL:COOLING:DX:SINGLESPEED,OFFICE_OPEN_3_14_Z80_COOLINGCOILDX,Outlet,1
 Non-Parent Node Connection,LOBBY_4_Z81_SUPPLYINLET,COIL:COOLING:DX:SINGLESPEED,LOBBY_4_Z81_COOLINGCOILDX,Inlet,1
 Non-Parent Node Connection,LOBBY_4_Z81_COOLC-HEATCNODE,COIL:COOLING:DX:SINGLESPEED,LOBBY_4_Z81_COOLINGCOILDX,Outlet,1
 Non-Parent Node Connection,CONFERENCE_4_Z82_SUPPLYINLET,COIL:COOLING:DX:SINGLESPEED,CONFERENCE_4_Z82_COOLINGCOILDX,Inlet,1
 Non-Parent Node Connection,CONFERENCE_4_Z82_COOLC-HEATCNODE,COIL:COOLING:DX:SINGLESPEED,CONFERENCE_4_Z82_COOLINGCOILDX,Outlet,1
 Non-Parent Node Connection,BREAK_ROOM_4_Z83_SUPPLYINLET,COIL:COOLING:DX:SINGLESPEED,BREAK_ROOM_4_Z83_COOLINGCOILDX,Inlet,1
 Non-Parent Node Connection,BREAK_ROOM_4_Z83_COOLC-HEATCNODE,COIL:COOLING:DX:SINGLESPEED,BREAK_ROOM_4_Z83_COOLINGCOILDX,Outlet,1
 Non-Parent Node Connection,MECHANICAL_4_Z84_SUPPLYINLET,COIL:COOLING:DX:SINGLESPEED,MECHANICAL_4_Z84_COOLINGCOILDX,Inlet,1
 Non-Parent Node Connection,MECHANICAL_4_Z84_COOLC-HEATCNODE,COIL:COOLING:DX:SINGLESPEED,MECHANICAL_4_Z84_COOLINGCOILDX,Outlet,1
 Non-Parent Node Connection,OFFICE_OPEN_4_Z85_SUPPLYINLET,COIL:COOLING:DX:SINGLESPEED,OFFICE_OPEN_4_Z85_COOLINGCOILDX,Inlet,1
 Non-Parent Node Connection,OFFICE_OPEN_4_Z85_COOLC-HEATCNODE,COIL:COOLING:DX:SINGLESPEED,OFFICE_OPEN_4_Z85_COOLINGCOILDX,Outlet,1
 Non-Parent Node Connection,OFFICE_PRIVATE_4_Z86_SUPPLYINLET,COIL:COOLING:DX:SINGLESPEED,OFFICE_PRIVATE_4_Z86_COOLINGCOILDX,Inlet,1
 Non-Parent Node Connection,OFFICE_PRIVATE_4_Z86_COOLC-HEATCNODE,COIL:COOLING:DX:SINGLESPEED,OFFICE_PRIVATE_4_Z86_COOLINGCOILDX,Outlet,1
 Non-Parent Node Connection,STORAGE_4_Z87_SUPPLYINLET,COIL:COOLING:DX:SINGLESPEED,STORAGE_4_Z87_COOLINGCOILDX,Inlet,1
 Non-Parent Node Connection,STORAGE_4_Z87_COOLC-HEATCNODE,COIL:COOLING:DX:SINGLESPEED,STORAGE_4_Z87_COOLINGCOILDX,Outlet,1
 Non-Parent Node Connection,OFFICE_OPEN_4_2_Z88_SUPPLYINLET,COIL:COOLING:DX:SINGLESPEED,OFFICE_OPEN_4_2_Z88_COOLINGCOILDX,Inlet,1
 Non-Parent Node Connection,OFFICE_OPEN_4_2_Z88_COOLC-HEATCNODE,COIL:COOLING:DX:SINGLESPEED,OFFICE_OPEN_4_2_Z88_COOLINGCOILDX,Outlet,1
 Non-Parent Node Connection,OFFICE_OPEN_4_3_Z89_SUPPLYINLET,COIL:COOLING:DX:SINGLESPEED,OFFICE_OPEN_4_3_Z89_COOLINGCOILDX,Inlet,1
 Non-Parent Node Connection,OFFICE_OPEN_4_3_Z89_COOLC-HEATCNODE,COIL:COOLING:DX:SINGLESPEED,OFFICE_OPEN_4_3_Z89_COOLINGCOILDX,Outlet,1
 Non-Parent Node Connection,OFFICE_OPEN_4_4_Z90_SUPPLYINLET,COIL:COOLING:DX:SINGLESPEED,OFFICE_OPEN_4_4_Z90_COOLINGCOILDX,Inlet,1
 Non-Parent Node Connection,OFFICE_OPEN_4_4_Z90_COOLC-HEATCNODE,COIL:COOLING:DX:SINGLESPEED,OFFICE_OPEN_4_4_Z90_COOLINGCOILDX,Outlet,1
 Non-Parent Node Connection,OFFICE_OPEN_4_5_Z91_SUPPLYINLET,COIL:COOLING:DX:SINGLESPEED,OFFICE_OPEN_4_5_Z91_COOLINGCOILDX,Inlet,1
 Non-Parent Node Connection,OFFICE_OPEN_4_5_Z91_COOLC-HEATCNODE,COIL:COOLING:DX:SINGLESPEED,OFFICE_OPEN_4_5_Z91_COOLINGCOILDX,Outlet,1
 Non-Parent Node Connection,OFFICE_OPEN_4_6_Z92_SUPPLYINLET,COIL:COOLING:DX:SINGLESPEED,OFFICE_OPEN_4_6_Z92_COOLINGCOILDX,Inlet,1
 Non-Parent Node Connection,OFFICE_OPEN_4_6_Z92_COOLC-HEATCNODE,COIL:COOLING:DX:SINGLESPEED,OFFICE_OPEN_4_6_Z92_COOLINGCOILDX,Outlet,1
 Non-Parent Node Connection,OFFICE_OPEN_4_7_Z93_SUPPLYINLET,COIL:COOLING:DX:SINGLESPEED,OFFICE_OPEN_4_7_Z93_COOLINGCOILDX,Inlet,1
 Non-Parent Node Connection,OFFICE_OPEN_4_7_Z93_COOLC-HEATCNODE,COIL:COOLING:DX:SINGLESPEED,OFFICE_OPEN_4_7_Z93_COOLINGCOILDX,Outlet,1
 Non-Parent Node Connection,OFFICE_OPEN_4_8_Z94_SUPPLYINLET,COIL:COOLING:DX:SINGLESPEED,OFFICE_OPEN_4_8_Z94_COOLINGCOILDX,Inlet,1
 Non-Parent Node Connection,OFFICE_OPEN_4_8_Z94_COOLC-HEATCNODE,COIL:COOLING:DX:SINGLESPEED,OFFICE_OPEN_4_8_Z94_COOLINGCOILDX,Outlet,1
 Non-Parent Node Connection,OFFICE_OPEN_4_9_Z95_SUPPLYINLET,COIL:COOLING:DX:SINGLESPEED,OFFICE_OPEN_4_9_Z95_COOLINGCOILDX,Inlet,1
 Non-Parent Node Connection,OFFICE_OPEN_4_9_Z95_COOLC-HEATCNODE,COIL:COOLING:DX:SINGLESPEED,OFFICE_OPEN_4_9_Z95_COOLINGCOILDX,Outlet,1
 Non-Parent Node Connection,OFFICE_OPEN_4_10_Z96_SUPPLYINLET,COIL:COOLING:DX:SINGLESPEED,OFFICE_OPEN_4_10_Z96_COOLINGCOILDX,Inlet,1
 Non-Parent Node Connection,OFFICE_OPEN_4_10_Z96_COOLC-HEATCNODE,COIL:COOLING:DX:SINGLESPEED,OFFICE_OPEN_4_10_Z96_COOLINGCOILDX,Outlet,1
 Non-Parent Node Connection,OFFICE_OPEN_4_11_Z97_SUPPLYINLET,COIL:COOLING:DX:SINGLESPEED,OFFICE_OPEN_4_11_Z97_COOLINGCOILDX,Inlet,1
 Non-Parent Node Connection,OFFICE_OPEN_4_11_Z97_COOLC-HEATCNODE,COIL:COOLING:DX:SINGLESPEED,OFFICE_OPEN_4_11_Z97_COOLINGCOILDX,Outlet,1
 Non-Parent Node Connection,OFFICE_OPEN_4_12_Z98_SUPPLYINLET,COIL:COOLING:DX:SINGLESPEED,OFFICE_OPEN_4_12_Z98_COOLINGCOILDX,Inlet,1
 Non-Parent Node Connection,OFFICE_OPEN_4_12_Z98_COOLC-HEATCNODE,COIL:COOLING:DX:SINGLESPEED,OFFICE_OPEN_4_12_Z98_CO