Program Version,EnergyPlus, Version 24.2.0-94a887817b, YMD=2025.11.03 21:32,
   ** Severe  ** <root>[Coil:Heating:Electric][break_room_0_z3_HeatingCoil][efficiency] - "3.500000" - Expected number less than or equal to 1.000000
   **  Fatal  ** Errors occurred on processing input file. Preceding condition(s) cause termination.
   ...Summary of Errors that led to program termination:
   ..... Reference severe error count=1
   ..... Last severe error=<root>[Coil:Heating:Electric][break_room_0_z3_HeatingCoil][efficiency] - "3.500000" - Expected number less than or equal to 1.000000
   ************* Warning:  Node connection errors not checked - most system input has not been read (see previous warning).
   ************* Fatal error -- final processing.  Program exited before simulations began.  See previous error messages.
   ************* EnergyPlus Warmup Error Summary. During Warmup: 0 Warning; 0 Severe Errors.
   ************* EnergyPlus Sizing Error Summary. During Sizing: 0 Warning; 0 Severe Errors.
   ************* EnergyPlus Terminated--Fatal Error Detected. 0 Warning; 1 Severe Errors; Elapsed Time=00hr 00min  0.30sec
