Program Version,EnergyPlus, Version 24.2.0-94a887817b, YMD=2025.11.01 22:56,
   ** Severe  ** Line: 6829 Index: 0 - Object contains more field values than maximum number of IDD fields and is not extensible.
   ** Severe  ** Line: 6829 Index: 0 - Error parsing "ZoneInfiltration:EffectiveLeakageArea". Error in following line.
   ** Severe  ** ~~~   1.225,                               !- Air Density {kg/m3
   ** Severe  ** Line: 6829 Index: 7 - "1.225" is not a valid Object Type.
   ** Severe  ** Line: 6957 Index: 0 - Object contains more field values than maximum number of IDD fields and is not extensible.
   ** Severe  ** Line: 6957 Index: 0 - Error parsing "ZoneInfiltration:EffectiveLeakageArea". Error in following line.
   ** Severe  ** ~~~   1.225,                               !- Air Density {kg/m3
   ** Severe  ** Line: 6957 Index: 7 - "1.225" is not a valid Object Type.
   ** Severe  ** Line: 7085 Index: 0 - Object contains more field values than maximum number of IDD fields and is not extensible.
   ** Severe  ** Line: 7085 Index: 0 - Error parsing "ZoneInfiltration:EffectiveLeakageArea". Error in following line.
   ** Severe  ** ~~~   1.225,                               !- Air Density {kg/m3
   ** Severe  ** Line: 7085 Index: 7 - "1.225" is not a valid Object Type.
   ** Severe  ** Line: 7185 Index: 0 - Object contains more field values than maximum number of IDD fields and is not extensible.
   ** Severe  ** Line: 7185 Index: 0 - Error parsing "ZoneInfiltration:EffectiveLeakageArea". Error in following line.
   ** Severe  ** ~~~   1.225,                               !- Air Density {kg/m3
   ** Severe  ** Line: 7185 Index: 7 - "1.225" is not a valid Object Type.
   ** Severe  ** Line: 7313 Index: 0 - Object contains more field values than maximum number of IDD fields and is not extensible.
   ** Severe  ** Line: 7313 Index: 0 - Error parsing "ZoneInfiltration:EffectiveLeakageArea". Error in following line.
   ** Severe  ** ~~~   1.225,                               !- Air Density {kg/m3
   ** Severe  ** Line: 7313 Index: 7 - "1.225" is not a valid Object Type.
   ** Severe  ** Line: 7441 Index: 0 - Object contains more field values than maximum number of IDD fields and is not extensible.
   ** Severe  ** Line: 7441 Index: 0 - Error parsing "ZoneInfiltration:EffectiveLeakageArea". Error in following line.
   ** Severe  ** ~~~   1.225,                               !- Air Density {kg/m3
   ** Severe  ** Line: 7441 Index: 7 - "1.225" is not a valid Object Type.
   ** Severe  ** Line: 7541 Index: 0 - Object contains more field values than maximum number of IDD fields and is not extensible.
   ** Severe  ** Line: 7541 Index: 0 - Error parsing "ZoneInfiltration:EffectiveLeakageArea". Error in following line.
   ** Severe  ** ~~~   1.225,                               !- Air Density {kg/m3
   ** Severe  ** Line: 7541 Index: 7 - "1.225" is not a valid Object Type.
   ** Severe  ** Line: 7669 Index: 0 - Object contains more field values than maximum number of IDD fields and is not extensible.
   ** Severe  ** Line: 7669 Index: 0 - Error parsing "ZoneInfiltration:EffectiveLeakageArea". Error in following line.
   ** Severe  ** ~~~   1.225,                               !- Air Density {kg/m3
   ** Severe  ** Line: 7669 Index: 7 - "1.225" is not a valid Object Type.
   ** Severe  ** Line: 7797 Index: 0 - Object contains more field values than maximum number of IDD fields and is not extensible.
   ** Severe  ** Line: 7797 Index: 0 - Error parsing "ZoneInfiltration:EffectiveLeakageArea". Error in following line.
   ** Severe  ** ~~~   1.225,                               !- Air Density {kg/m3
   ** Severe  ** Line: 7797 Index: 7 - "1.225" is not a valid Object Type.
   ** Severe  ** Line: 7897 Index: 0 - Object contains more field values than maximum number of IDD fields and is not extensible.
   ** Severe  ** Line: 7897 Index: 0 - Error parsing "ZoneInfiltration:EffectiveLeakageArea". Error in following line.
   ** Severe  ** ~~~   1.225,                               !- Air Density {kg/m3
   ** Severe  ** Line: 7897 Index: 7 - "1.225" is not a valid Object Type.
   ** Severe  ** Line: 8025 Index: 0 - Object contains more field values than maximum number of IDD fields and is not extensible.
   ** Severe  ** Line: 8025 Index: 0 - Error parsing "ZoneInfiltration:EffectiveLeakageArea". Error in following line.
   ** Severe  ** ~~~   1.225,                               !- Air Density {kg/m3
   ** Severe  ** Line: 8025 Index: 7 - "1.225" is not a valid Object Type.
   ** Severe  ** Line: 8153 Index: 0 - Object contains more field values than maximum number of IDD fields and is not extensible.
   ** Severe  ** Line: 8153 Index: 0 - Error parsing "ZoneInfiltration:EffectiveLeakageArea". Error in following line.
   ** Severe  ** ~~~   1.225,                               !- Air Density {kg/m3
   ** Severe  ** Line: 8153 Index: 7 - "1.225" is not a valid Object Type.
   ** Severe  ** Line: 8253 Index: 0 - Object contains more field values than maximum number of IDD fields and is not extensible.
   ** Severe  ** Line: 8253 Index: 0 - Error parsing "ZoneInfiltration:EffectiveLeakageArea". Error in following line.
   ** Severe  ** ~~~   1.225,                               !- Air Density {kg/m3
   ** Severe  ** Line: 8253 Index: 7 - "1.225" is not a valid Object Type.
   ** Severe  ** Line: 8381 Index: 0 - Object contains more field values than maximum number of IDD fields and is not extensible.
   ** Severe  ** Line: 8381 Index: 0 - Error parsing "ZoneInfiltration:EffectiveLeakageArea". Error in following line.
   ** Severe  ** ~~~   1.225,                               !- Air Density {kg/m3
   ** Severe  ** Line: 8381 Index: 7 - "1.225" is not a valid Object Type.
   ** Severe  ** Line: 8509 Index: 0 - Object contains more field values than maximum number of IDD fields and is not extensible.
   ** Severe  ** Line: 8509 Index: 0 - Error parsing "ZoneInfiltration:EffectiveLeakageArea". Error in following line.
   ** Severe  ** ~~~   1.225,                               !- Air Density {kg/m3
   ** Severe  ** Line: 8509 Index: 7 - "1.225" is not a valid Object Type.
   ** Severe  ** Line: 8637 Index: 0 - Object contains more field values than maximum number of IDD fields and is not extensible.
   ** Severe  ** Line: 8637 Index: 0 - Error parsing "ZoneInfiltration:EffectiveLeakageArea". Error in following line.
   ** Severe  ** ~~~   1.225,                               !- Air Density {kg/m3
   ** Severe  ** Line: 8637 Index: 7 - "1.225" is not a valid Object Type.
   ** Severe  ** Line: 8737 Index: 0 - Object contains more field values than maximum number of IDD fields and is not extensible.
   ** Severe  ** Line: 8737 Index: 0 - Error parsing "ZoneInfiltration:EffectiveLeakageArea". Error in following line.
   ** Severe  ** ~~~   1.225,                               !- Air Density {kg/m3
   ** Severe  ** Line: 8737 Index: 7 - "1.225" is not a valid Object Type.
   ** Severe  ** Line: 8865 Index: 0 - Object contains more field values than maximum number of IDD fields and is not extensible.
   ** Severe  ** Line: 8865 Index: 0 - Error parsing "ZoneInfiltration:EffectiveLeakageArea". Error in following line.
   ** Severe  ** ~~~   1.225,                               !- Air Density {kg/m3
   ** Severe  ** Line: 8865 Index: 7 - "1.225" is not a valid Object Type.
   ** Severe  ** Line: 8993 Index: 0 - Object contains more field values than maximum number of IDD fields and is not extensible.
   ** Severe  ** Line: 8993 Index: 0 - Error parsing "ZoneInfiltration:EffectiveLeakageArea". Error in following line.
   ** Severe  ** ~~~   1.225,                               !- Air Density {kg/m3
   ** Severe  ** Line: 8993 Index: 7 - "1.225" is not a valid Object Type.
   ** Severe  ** Line: 9093 Index: 0 - Object contains more field values than maximum number of IDD fields and is not extensible.
   ** Severe  ** Line: 9093 Index: 0 - Error parsing "ZoneInfiltration:EffectiveLeakageArea". Error in following line.
   ** Severe  ** ~~~   1.225,                               !- Air Density {kg/m3
   ** Severe  ** Line: 9093 Index: 7 - "1.225" is not a valid Object Type.
   ** Severe  ** Line: 9221 Index: 0 - Object contains more field values than maximum number of IDD fields and is not extensible.
   ** Severe  ** Line: 9221 Index: 0 - Error parsing "ZoneInfiltration:EffectiveLeakageArea". Error in following line.
   ** Severe  ** ~~~   1.225,                               !- Air Density {kg/m3
   ** Severe  ** Line: 9221 Index: 7 - "1.225" is not a valid Object Type.
   ** Severe  ** Line: 9349 Index: 0 - Object contains more field values than maximum number of IDD fields and is not extensible.
   ** Severe  ** Line: 9349 Index: 0 - Error parsing "ZoneInfiltration:EffectiveLeakageArea". Error in following line.
   ** Severe  ** ~~~   1.225,                               !- Air Density {kg/m3
   ** Severe  ** Line: 9349 Index: 7 - "1.225" is not a valid Object Type.
   ** Severe  ** Line: 9477 Index: 0 - Object contains more field values than maximum number of IDD fields and is not extensible.
   ** Severe  ** Line: 9477 Index: 0 - Error parsing "ZoneInfiltration:EffectiveLeakageArea". Error in following line.
   ** Severe  ** ~~~   1.225,                               !- Air Density {kg/m3
   ** Severe  ** Line: 9477 Index: 7 - "1.225" is not a valid Object Type.
   ** Severe  ** Line: 9577 Index: 0 - Object contains more field values than maximum number of IDD fields and is not extensible.
   ** Severe  ** Line: 9577 Index: 0 - Error parsing "ZoneInfiltration:EffectiveLeakageArea". Error in following line.
   ** Severe  ** ~~~   1.225,                               !- Air Density {kg/m3
   ** Severe  ** Line: 9577 Index: 7 - "1.225" is not a valid Object Type.
   ** Severe  ** Line: 9705 Index: 0 - Object contains more field values than maximum number of IDD fields and is not extensible.
   ** Severe  ** Line: 9705 Index: 0 - Error parsing "ZoneInfiltration:EffectiveLeakageArea". Error in following line.
   ** Severe  ** ~~~   1.225,                               !- Air Density {kg/m3
   ** Severe  ** Line: 9705 Index: 7 - "1.225" is not a valid Object Type.
   ** Severe  ** Line: 9833 Index: 0 - Object contains more field values than maximum number of IDD fields and is not extensible.
   ** Severe  ** Line: 9833 Index: 0 - Error parsing "ZoneInfiltration:EffectiveLeakageArea". Error in following line.
   ** Severe  ** ~~~   1.225,                               !- Air Density {kg/m3
   ** Severe  ** Line: 9833 Index: 7 - "1.225" is not a valid Object Type.
   ** Severe  ** Line: 9933 Index: 0 - Object contains more field values than maximum number of IDD fields and is not extensible.
   ** Severe  ** Line: 9933 Index: 0 - Error parsing "ZoneInfiltration:EffectiveLeakageArea". Error in following line.
   ** Severe  ** ~~~   1.225,                               !- Air Density {kg/m3
   ** Severe  ** Line: 9933 Index: 7 - "1.225" is not a valid Object Type.
   ** Severe  ** Line: 10061 Index: 0 - Object contains more field values than maximum number of IDD fields and is not extensible.
   ** Severe  ** Line: 10061 Index: 0 - Error parsing "ZoneInfiltration:EffectiveLeakageArea". Error in following line.
   ** Severe  ** ~~~   1.225,                               !- Air Density {kg/m3
   ** Severe  ** Line: 10061 Index: 7 - "1.225" is not a valid Object Type.
   ** Severe  ** Line: 10189 Index: 0 - Object contains more field values than maximum number of IDD fields and is not extensible.
   ** Severe  ** Line: 10189 Index: 0 - Error parsing "ZoneInfiltration:EffectiveLeakageArea". Error in following line.
   ** Severe  ** ~~~   1.225,                               !- Air Density {kg/m3
   ** Severe  ** Line: 10189 Index: 7 - "1.225" is not a valid Object Type.
   ** Severe  ** Line: 10289 Index: 0 - Object contains more field values than maximum number of IDD fields and is not extensible.
   ** Severe  ** Line: 10289 Index: 0 - Error parsing "ZoneInfiltration:EffectiveLeakageArea". Error in following line.
   ** Severe  ** ~~~   1.225,                               !- Air Density {kg/m3
   ** Severe  ** Line: 10289 Index: 7 - "1.225" is not a valid Object Type.
   ** Severe  ** Line: 10417 Index: 0 - Object contains more field values than maximum number of IDD fields and is not extensible.
   ** Severe  ** Line: 10417 Index: 0 - Error parsing "ZoneInfiltration:EffectiveLeakageArea". Error in following line.
   ** Severe  ** ~~~   1.225,                               !- Air Density {kg/m3
   ** Severe  ** Line: 10417 Index: 7 - "1.225" is not a valid Object Type.
   ** Severe  ** Line: 10545 Index: 0 - Object contains more field values than maximum number of IDD fields and is not extensible.
   ** Severe  ** Line: 10545 Index: 0 - Error parsing "ZoneInfiltration:EffectiveLeakageArea". Error in following line.
   ** Severe  ** ~~~   1.225,                               !- Air Density {kg/m3
   ** Severe  ** Line: 10545 Index: 7 - "1.225" is not a valid Object Type.
   ** Severe  ** Line: 10645 Index: 0 - Object contains more field values than maximum number of IDD fields and is not extensible.
   ** Severe  ** Line: 10645 Index: 0 - Error parsing "ZoneInfiltration:EffectiveLeakageArea". Error in following line.
   ** Severe  ** ~~~   1.225,                               !- Air Density {kg/m3
   ** Severe  ** Line: 10645 Index: 7 - "1.225" is not a valid Object Type.
   ** Severe  ** Line: 11956 Index: 0 - Object contains more field values than maximum number of IDD fields and is not extensible.
   ** Severe  ** Line: 11956 Index: 0 - Error parsing "DesignSpecification:OutdoorAir". Error in following line.
   ** Severe  ** ~~~   Yes,                                    !- Demand Controlled Ventilation Typ
   ** Severe  ** Line: 11956 Index: 5 - "Yes" is not a valid Object Type.
   ** Severe  ** Line: 12230 Index: 0 - Object contains more field values than maximum number of IDD fields and is not extensible.
   ** Severe  ** Line: 12230 Index: 0 - Error parsing "DesignSpecification:OutdoorAir". Error in following line.
   ** Severe  ** ~~~   Yes,                                    !- Demand Controlled Ventilation Typ
   ** Severe  ** Line: 12230 Index: 5 - "Yes" is not a valid Object Type.
   ** Severe  ** Line: 12504 Index: 0 - Object contains more field values than maximum number of IDD fields and is not extensible.
   ** Severe  ** Line: 12504 Index: 0 - Error parsing "DesignSpecification:OutdoorAir". Error in following line.
   ** Severe  ** ~~~   Yes,                                    !- Demand Controlled Ventilation Typ
   ** Severe  ** Line: 12504 Index: 5 - "Yes" is not a valid Object Type.
   ** Severe  ** Line: 12778 Index: 0 - Object contains more field values than maximum number of IDD fields and is not extensible.
   ** Severe  ** Line: 12778 Index: 0 - Error parsing "DesignSpecification:OutdoorAir". Error in following line.
   ** Severe  ** ~~~   Yes,                                    !- Demand Controlled Ventilation Typ
   ** Severe  ** Line: 12778 Index: 5 - "Yes" is not a valid Object Type.
   ** Severe  ** Line: 13052 Index: 0 - Object contains more field values than maximum number of IDD fields and is not extensible.
   ** Severe  ** Line: 13052 Index: 0 - Error parsing "DesignSpecification:OutdoorAir". Error in following line.
   ** Severe  ** ~~~   Yes,                                    !- Demand Controlled Ventilation Typ
   ** Severe  ** Line: 13052 Index: 5 - "Yes" is not a valid Object Type.
   ** Severe  ** Line: 13326 Index: 0 - Object contains more field values than maximum number of IDD fields and is not extensible.
   ** Severe  ** Line: 13326 Index: 0 - Error parsing "DesignSpecification:OutdoorAir". Error in following line.
   ** Severe  ** ~~~   Yes,                                    !- Demand Controlled Ventilation Typ
   ** Severe  ** Line: 13326 Index: 5 - "Yes" is not a valid Object Type.
   ** Severe  ** Line: 13600 Index: 0 - Object contains more field values than maximum number of IDD fields and is not extensible.
   ** Severe  ** Line: 13600 Index: 0 - Error parsing "DesignSpecification:OutdoorAir". Error in following line.
   ** Severe  ** ~~~   Yes,                                    !- Demand Controlled Ventilation Typ
   ** Severe  ** Line: 13600 Index: 5 - "Yes" is not a valid Object Type.
   ** Severe  ** Line: 13874 Index: 0 - Object contains more field values than maximum number of IDD fields and is not extensible.
   ** Severe  ** Line: 13874 Index: 0 - Error parsing "DesignSpecification:OutdoorAir". Error in following line.
   ** Severe  ** ~~~   Yes,                                    !- Demand Controlled Ventilation Typ
   ** Severe  ** Line: 13874 Index: 5 - "Yes" is not a valid Object Type.
   ** Severe  ** Line: 14148 Index: 0 - Object contains more field values than maximum number of IDD fields and is not extensible.
   ** Severe  ** Line: 14148 Index: 0 - Error parsing "DesignSpecification:OutdoorAir". Error in following line.
   ** Severe  ** ~~~   Yes,                                    !- Demand Controlled Ventilation Typ
   ** Severe  ** Line: 14148 Index: 5 - "Yes" is not a valid Object Type.
   ** Severe  ** Line: 14422 Index: 0 - Object contains more field values than maximum number of IDD fields and is not extensible.
   ** Severe  ** Line: 14422 Index: 0 - Error parsing "DesignSpecification:OutdoorAir". Error in following line.
   ** Severe  ** ~~~   Yes,                                    !- Demand Controlled Ventilation Typ
   ** Severe  ** Line: 14422 Index: 5 - "Yes" is not a valid Object Type.
   ** Severe  ** Line: 14696 Index: 0 - Object contains more field values than maximum number of IDD fields and is not extensible.
   ** Severe  ** Line: 14696 Index: 0 - Error parsing "DesignSpecification:OutdoorAir". Error in following line.
   ** Severe  ** ~~~   Yes,                                    !- Demand Controlled Ventilation Typ
   ** Severe  ** Line: 14696 Index: 5 - "Yes" is not a valid Object Type.
   ** Severe  ** Line: 14970 Index: 0 - Object contains more field values than maximum number of IDD fields and is not extensible.
   ** Severe  ** Line: 14970 Index: 0 - Error parsing "DesignSpecification:OutdoorAir". Error in following line.
   ** Severe  ** ~~~   Yes,                                    !- Demand Controlled Ventilation Typ
   ** Severe  ** Line: 14970 Index: 5 - "Yes" is not a valid Object Type.
   ** Severe  ** Line: 15244 Index: 0 - Object contains more field values than maximum number of IDD fields and is not extensible.
   ** Severe  ** Line: 15244 Index: 0 - Error parsing "DesignSpecification:OutdoorAir". Error in following line.
   ** Severe  ** ~~~   Yes,                                    !- Demand Controlled Ventilation Typ
   ** Severe  ** Line: 15244 Index: 5 - "Yes" is not a valid Object Type.
   ** Severe  ** Line: 15518 Index: 0 - Object contains more field values than maximum number of IDD fields and is not extensible.
   ** Severe  ** Line: 15518 Index: 0 - Error parsing "DesignSpecification:OutdoorAir". Error in following line.
   ** Severe  ** ~~~   Yes,                                    !- Demand Controlled Ventilation Typ
   ** Severe  ** Line: 15518 Index: 5 - "Yes" is not a valid Object Type.
   ** Severe  ** Line: 15792 Index: 0 - Object contains more field values than maximum number of IDD fields and is not extensible.
   ** Severe  ** Line: 15792 Index: 0 - Error parsing "DesignSpecification:OutdoorAir". Error in following line.
   ** Severe  ** ~~~   Yes,                                    !- Demand Controlled Ventilation Typ
   ** Severe  ** Line: 15792 Index: 5 - "Yes" is not a valid Object Type.
   ** Severe  ** Line: 16066 Index: 0 - Object contains more field values than maximum number of IDD fields and is not extensible.
   ** Severe  ** Line: 16066 Index: 0 - Error parsing "DesignSpecification:OutdoorAir". Error in following line.
   ** Severe  ** ~~~   Yes,                                    !- Demand Controlled Ventilation Typ
   ** Severe  ** Line: 16066 Index: 5 - "Yes" is not a valid Object Type.
   ** Severe  ** Line: 16340 Index: 0 - Object contains more field values than maximum number of IDD fields and is not extensible.
   ** Severe  ** Line: 16340 Index: 0 - Error parsing "DesignSpecification:OutdoorAir". Error in following line.
   ** Severe  ** ~~~   Yes,                                    !- Demand Controlled Ventilation Typ
   ** Severe  ** Line: 16340 Index: 5 - "Yes" is not a valid Object Type.
   ** Severe  ** Line: 16614 Index: 0 - Object contains more field values than maximum number of IDD fields and is not extensible.
   ** Severe  ** Line: 16614 Index: 0 - Error parsing "DesignSpecification:OutdoorAir". Error in following line.
   ** Severe  ** ~~~   Yes,                                    !- Demand Controlled Ventilation Typ
   ** Severe  ** Line: 16614 Index: 5 - "Yes" is not a valid Object Type.
   ** Severe  ** Line: 16888 Index: 0 - Object contains more field values than maximum number of IDD fields and is not extensible.
   ** Severe  ** Line: 16888 Index: 0 - Error parsing "DesignSpecification:OutdoorAir". Error in following line.
   ** Severe  ** ~~~   Yes,                                    !- Demand Controlled Ventilation Typ
   ** Severe  ** Line: 16888 Index: 5 - "Yes" is not a valid Object Type.
   ** Severe  ** Line: 17162 Index: 0 - Object contains more field values than maximum number of IDD fields and is not extensible.
   ** Severe  ** Line: 17162 Index: 0 - Error parsing "DesignSpecification:OutdoorAir". Error in following line.
   ** Severe  ** ~~~   Yes,                                    !- Demand Controlled Ventilation Typ
   ** Severe  ** Line: 17162 Index: 5 - "Yes" is not a valid Object Type.
   ** Severe  ** Line: 17436 Index: 0 - Object contains more field values than maximum number of IDD fields and is not extensible.
   ** Severe  ** Line: 17436 Index: 0 - Error parsing "DesignSpecification:OutdoorAir". Error in following line.
   ** Severe  ** ~~~   Yes,                                    !- Demand Controlled Ventilation Typ
   ** Severe  ** Line: 17436 Index: 5 - "Yes" is not a valid Object Type.
   ** Severe  ** Line: 17710 Index: 0 - Object contains more field values than maximum number of IDD fields and is not extensible.
   ** Severe  ** Line: 17710 Index: 0 - Error parsing "DesignSpecification:OutdoorAir". Error in following line.
   ** Severe  ** ~~~   Yes,                                    !- Demand Controlled Ventilation Typ
   ** Severe  ** Line: 17710 Index: 5 - "Yes" is not a valid Object Type.
   ** Severe  ** Line: 17984 Index: 0 - Object contains more field values than maximum number of IDD fields and is not extensible.
   ** Severe  ** Line: 17984 Index: 0 - Error parsing "DesignSpecification:OutdoorAir". Error in following line.
   ** Severe  ** ~~~   Yes,                                    !- Demand Controlled Ventilation Typ
   ** Severe  ** Line: 17984 Index: 5 - "Yes" is not a valid Object Type.
   ** Severe  ** Line: 18258 Index: 0 - Object contains more field values than maximum number of IDD fields and is not extensible.
   ** Severe  ** Line: 18258 Index: 0 - Error parsing "DesignSpecification:OutdoorAir". Error in following line.
   ** Severe  ** ~~~   Yes,                                    !- Demand Controlled Ventilation Typ
   ** Severe  ** Line: 18258 Index: 5 - "Yes" is not a valid Object Type.
   ** Severe  ** Line: 18532 Index: 0 - Object contains more field values than maximum number of IDD fields and is not extensible.
   ** Severe  ** Line: 18532 Index: 0 - Error parsing "DesignSpecification:OutdoorAir". Error in following line.
   ** Severe  ** ~~~   Yes,                                    !- Demand Controlled Ventilation Typ
   ** Severe  ** Line: 18532 Index: 5 - "Yes" is not a valid Object Type.
   ** Severe  ** Line: 18806 Index: 0 - Object contains more field values than maximum number of IDD fields and is not extensible.
   ** Severe  ** Line: 18806 Index: 0 - Error parsing "DesignSpecification:OutdoorAir". Error in following line.
   ** Severe  ** ~~~   Yes,                                    !- Demand Controlled Ventilation Typ
   ** Severe  ** Line: 18806 Index: 5 - "Yes" is not a valid Object Type.
   ** Severe  ** Line: 19080 Index: 0 - Object contains more field values than maximum number of IDD fields and is not extensible.
   ** Severe  ** Line: 19080 Index: 0 - Error parsing "DesignSpecification:OutdoorAir". Error in following line.
   ** Severe  ** ~~~   Yes,                                    !- Demand Controlled Ventilation Typ
   ** Severe  ** Line: 19080 Index: 5 - "Yes" is not a valid Object Type.
   ** Severe  ** Line: 19354 Index: 0 - Object contains more field values than maximum number of IDD fields and is not extensible.
   ** Severe  ** Line: 19354 Index: 0 - Error parsing "DesignSpecification:OutdoorAir". Error in following line.
   ** Severe  ** ~~~   Yes,                                    !- Demand Controlled Ventilation Typ
   ** Severe  ** Line: 19354 Index: 5 - "Yes" is not a valid Object Type.
   ** Severe  ** Line: 19628 Index: 0 - Object contains more field values than maximum number of IDD fields and is not extensible.
   ** Severe  ** Line: 19628 Index: 0 - Error parsing "DesignSpecification:OutdoorAir". Error in following line.
   ** Severe  ** ~~~   Yes,                                    !- Demand Controlled Ventilation Typ
   ** Severe  ** Line: 19628 Index: 5 - "Yes" is not a valid Object Type.
   ** Severe  ** Line: 19902 Index: 0 - Object contains more field values than maximum number of IDD fields and is not extensible.
   ** Severe  ** Line: 19902 Index: 0 - Error parsing "DesignSpecification:OutdoorAir". Error in following line.
   ** Severe  ** ~~~   Yes,                                    !- Demand Controlled Ventilation Typ
   ** Severe  ** Line: 19902 Index: 5 - "Yes" is not a valid Object Type.
   ** Severe  ** Line: 20176 Index: 0 - Object contains more field values than maximum number of IDD fields and is not extensible.
   ** Severe  ** Line: 20176 Index: 0 - Error parsing "DesignSpecification:OutdoorAir". Error in following line.
   ** Severe  ** ~~~   Yes,                                    !- Demand Controlled Ventilation Typ
   ** Severe  ** Line: 20176 Index: 5 - "Yes" is not a valid Object Type.
   ** Severe  ** Line: 20450 Index: 0 - Object contains more field values than maximum number of IDD fields and is not extensible.
   ** Severe  ** Line: 20450 Index: 0 - Error parsing "DesignSpecification:OutdoorAir". Error in following line.
   ** Severe  ** ~~~   Yes,                                    !- Demand Controlled Ventilation Typ
   ** Severe  ** Line: 20450 Index: 5 - "Yes" is not a valid Object Type.
   ** Severe  ** Line: 20724 Index: 0 - Object contains more field values than maximum number of IDD fields and is not extensible.
   ** Severe  ** Line: 20724 Index: 0 - Error parsing "DesignSpecification:OutdoorAir". Error in following line.
   ** Severe  ** ~~~   Yes,                                    !- Demand Controlled Ventilation Typ
   ** Severe  ** Line: 20724 Index: 5 - "Yes" is not a valid Object Type.
   ** Severe  ** Line: 20885 Index: 16 - "Through: 12/31" is not a valid Object Type.
   ** Severe  ** Line: 20979 Index: 16 - "Through: 12/31" is not a valid Object Type.
   ** Severe  ** Line: 21049 Index: 16 - "Through: 12/31" is not a valid Object Type.
   ** Severe  ** Line: 21119 Index: 16 - "Through: 12/31" is not a valid Object Type.
   ** Severe  ** Line: 21213 Index: 16 - "Through: 12/31" is not a valid Object Type.
   ** Severe  ** Line: 21283 Index: 16 - "Through: 12/31" is not a valid Object Type.
   ** Severe  ** <root>[Controller:MechanicalVentilation][break_room_0_MechVent][demand_controlled_ventilation] - "Standard62.1VentilationRateProcedure" - Failed to match against any enum values.
   ** Severe  ** <root>[Controller:OutdoorAir][break_room_0_z3_OAController][economizer_control_action_type] - "MinimumLimit" - Failed to match against any enum values.
   ** Severe  ** <root>[Controller:OutdoorAir][break_room_0_z3_OAController][economizer_maximum_limit_dewpoint_temperature] - Value type "string" for input "DifferentialEnthalpy" not permitted by 'type' constraint.
   ** Severe  ** <root>[Controller:OutdoorAir][break_room_0_z3_OAController][lockout_type] - "66000" - Failed to match against any enum values.
   **  Fatal  ** Errors occurred on processing input file. Preceding condition(s) cause termination.
   ...Summary of Errors that led to program termination:
   ..... Reference severe error count=274
   ..... Last severe error=<root>[Controller:OutdoorAir][break_room_0_z3_OAController][lockout_type] - "66000" - Failed to match against any enum values.
   ************* Warning:  Node connection errors not checked - most system input has not been read (see previous warning).
   ************* Fatal error -- final processing.  Program exited before simulations began.  See previous error messages.
   ************* EnergyPlus Warmup Error Summary. During Warmup: 0 Warning; 0 Severe Errors.
   ************* EnergyPlus Sizing Error Summary. During Sizing: 0 Warning; 0 Severe Errors.
   ************* EnergyPlus Terminated--Fatal Error Detected. 0 Warning; 274 Severe Errors; Elapsed Time=00hr 00min  0.11sec
