Program Version,EnergyPlus, Version 24.2.0-94a887817b, YMD=2025.10.31 17:04
! This file shows details about the branches, nodes, and other
! elements of the flow connections.
! This file is intended for use in "debugging" potential problems
! that may also be detected by the program, but may be more easily
! identified by "eye".
! This file is also intended to support software which draws a
! schematic diagram of the HVAC system.
! ===============================================================
! #Nodes,<Number of Unique Nodes>
 #Nodes,216
! <Node>,<NodeNumber>,<Node Name>,<Node Fluid Type>,<# Times Node Referenced After Definition>
 Node,1,LOBBY_0_Z1_ADUOUTLET,Air,4
 Node,2,CONFERENCE_0_Z2_ADUOUTLET,Air,4
 Node,3,BREAK_ROOM_0_Z3_ADUOUTLET,Air,4
 Node,4,MECHANICAL_0_Z4_ADUOUTLET,Air,4
 Node,5,OFFICE_OPEN_0_Z5_ADUOUTLET,Air,4
 Node,6,OFFICE_PRIVATE_0_Z6_ADUOUTLET,Air,4
 Node,7,STORAGE_0_Z7_ADUOUTLET,Air,4
 Node,8,CONFERENCE_1_Z8_ADUOUTLET,Air,4
 Node,9,BREAK_ROOM_1_Z9_ADUOUTLET,Air,4
 Node,10,MECHANICAL_1_Z10_ADUOUTLET,Air,4
 Node,11,OFFICE_PRIVATE_1_Z11_ADUOUTLET,Air,4
 Node,12,STORAGE_1_Z12_ADUOUTLET,Air,4
 Node,13,LOBBY_2_Z13_ADUOUTLET,Air,4
 Node,14,CONFERENCE_2_Z14_ADUOUTLET,Air,4
 Node,15,MECHANICAL_2_Z15_ADUOUTLET,Air,4
 Node,16,OFFICE_OPEN_2_Z16_ADUOUTLET,Air,4
 Node,17,OFFICE_PRIVATE_2_Z17_ADUOUTLET,Air,4
 Node,18,STORAGE_2_Z18_ADUOUTLET,Air,4
 Node,19,LOBBY_0_Z1_SUPPLYINLET,Air,3
 Node,20,LOBBY_0_Z1_COOLC-HEATCNODE,Air,6
 Node,21,LOBBY_0_Z1_HEATC-FANNODE,Air,5
 Node,22,LOBBY_0_Z1_SUPPLYEQUIPMENTOUTLETNODE,Air,2
 Node,23,CONFERENCE_0_Z2_SUPPLYINLET,Air,3
 Node,24,CONFERENCE_0_Z2_COOLC-HEATCNODE,Air,6
 Node,25,CONFERENCE_0_Z2_HEATC-FANNODE,Air,5
 Node,26,CONFERENCE_0_Z2_SUPPLYEQUIPMENTOUTLETNODE,Air,2
 Node,27,BREAK_ROOM_0_Z3_SUPPLYINLET,Air,3
 Node,28,BREAK_ROOM_0_Z3_COOLC-HEATCNODE,Air,6
 Node,29,BREAK_ROOM_0_Z3_HEATC-FANNODE,Air,5
 Node,30,BREAK_ROOM_0_Z3_SUPPLYEQUIPMENTOUTLETNODE,Air,2
 Node,31,MECHANICAL_0_Z4_SUPPLYINLET,Air,3
 Node,32,MECHANICAL_0_Z4_COOLC-HEATCNODE,Air,6
 Node,33,MECHANICAL_0_Z4_HEATC-FANNODE,Air,5
 Node,34,MECHANICAL_0_Z4_SUPPLYEQUIPMENTOUTLETNODE,Air,2
 Node,35,OFFICE_OPEN_0_Z5_SUPPLYINLET,Air,3
 Node,36,OFFICE_OPEN_0_Z5_COOLC-HEATCNODE,Air,6
 Node,37,OFFICE_OPEN_0_Z5_HEATC-FANNODE,Air,5
 Node,38,OFFICE_OPEN_0_Z5_SUPPLYEQUIPMENTOUTLETNODE,Air,2
 Node,39,OFFICE_PRIVATE_0_Z6_SUPPLYINLET,Air,3
 Node,40,OFFICE_PRIVATE_0_Z6_COOLC-HEATCNODE,Air,6
 Node,41,OFFICE_PRIVATE_0_Z6_HEATC-FANNODE,Air,5
 Node,42,OFFICE_PRIVATE_0_Z6_SUPPLYEQUIPMENTOUTLETNODE,Air,2
 Node,43,STORAGE_0_Z7_SUPPLYINLET,Air,3
 Node,44,STORAGE_0_Z7_COOLC-HEATCNODE,Air,6
 Node,45,STORAGE_0_Z7_HEATC-FANNODE,Air,5
 Node,46,STORAGE_0_Z7_SUPPLYEQUIPMENTOUTLETNODE,Air,2
 Node,47,CONFERENCE_1_Z8_SUPPLYINLET,Air,3
 Node,48,CONFERENCE_1_Z8_COOLC-HEATCNODE,Air,6
 Node,49,CONFERENCE_1_Z8_HEATC-FANNODE,Air,5
 Node,50,CONFERENCE_1_Z8_SUPPLYEQUIPMENTOUTLETNODE,Air,2
 Node,51,BREAK_ROOM_1_Z9_SUPPLYINLET,Air,3
 Node,52,BREAK_ROOM_1_Z9_COOLC-HEATCNODE,Air,6
 Node,53,BREAK_ROOM_1_Z9_HEATC-FANNODE,Air,5
 Node,54,BREAK_ROOM_1_Z9_SUPPLYEQUIPMENTOUTLETNODE,Air,2
 Node,55,MECHANICAL_1_Z10_SUPPLYINLET,Air,3
 Node,56,MECHANICAL_1_Z10_COOLC-HEATCNODE,Air,6
 Node,57,MECHANICAL_1_Z10_HEATC-FANNODE,Air,5
 Node,58,MECHANICAL_1_Z10_SUPPLYEQUIPMENTOUTLETNODE,Air,2
 Node,59,OFFICE_PRIVATE_1_Z11_SUPPLYINLET,Air,3
 Node,60,OFFICE_PRIVATE_1_Z11_COOLC-HEATCNODE,Air,6
 Node,61,OFFICE_PRIVATE_1_Z11_HEATC-FANNODE,Air,5
 Node,62,OFFICE_PRIVATE_1_Z11_SUPPLYEQUIPMENTOUTLETNODE,Air,2
 Node,63,STORAGE_1_Z12_SUPPLYINLET,Air,3
 Node,64,STORAGE_1_Z12_COOLC-HEATCNODE,Air,6
 Node,65,STORAGE_1_Z12_HEATC-FANNODE,Air,5
 Node,66,STORAGE_1_Z12_SUPPLYEQUIPMENTOUTLETNODE,Air,2
 Node,67,LOBBY_2_Z13_SUPPLYINLET,Air,3
 Node,68,LOBBY_2_Z13_COOLC-HEATCNODE,Air,6
 Node,69,LOBBY_2_Z13_HEATC-FANNODE,Air,5
 Node,70,LOBBY_2_Z13_SUPPLYEQUIPMENTOUTLETNODE,Air,2
 Node,71,CONFERENCE_2_Z14_SUPPLYINLET,Air,3
 Node,72,CONFERENCE_2_Z14_COOLC-HEATCNODE,Air,6
 Node,73,CONFERENCE_2_Z14_HEATC-FANNODE,Air,5
 Node,74,CONFERENCE_2_Z14_SUPPLYEQUIPMENTOUTLETNODE,Air,2
 Node,75,MECHANICAL_2_Z15_SUPPLYINLET,Air,3
 Node,76,MECHANICAL_2_Z15_COOLC-HEATCNODE,Air,6
 Node,77,MECHANICAL_2_Z15_HEATC-FANNODE,Air,5
 Node,78,MECHANICAL_2_Z15_SUPPLYEQUIPMENTOUTLETNODE,Air,2
 Node,79,OFFICE_OPEN_2_Z16_SUPPLYINLET,Air,3
 Node,80,OFFICE_OPEN_2_Z16_COOLC-HEATCNODE,Air,6
 Node,81,OFFICE_OPEN_2_Z16_HEATC-FANNODE,Air,5
 Node,82,OFFICE_OPEN_2_Z16_SUPPLYEQUIPMENTOUTLETNODE,Air,2
 Node,83,OFFICE_PRIVATE_2_Z17_SUPPLYINLET,Air,3
 Node,84,OFFICE_PRIVATE_2_Z17_COOLC-HEATCNODE,Air,6
 Node,85,OFFICE_PRIVATE_2_Z17_HEATC-FANNODE,Air,5
 Node,86,OFFICE_PRIVATE_2_Z17_SUPPLYEQUIPMENTOUTLETNODE,Air,2
 Node,87,STORAGE_2_Z18_SUPPLYINLET,Air,3
 Node,88,STORAGE_2_Z18_COOLC-HEATCNODE,Air,6
 Node,89,STORAGE_2_Z18_HEATC-FANNODE,Air,5
 Node,90,STORAGE_2_Z18_SUPPLYEQUIPMENTOUTLETNODE,Air,2
 Node,91,LOBBY_0 AIR NODE,Air,0
 Node,92,CONFERENCE_0 AIR NODE,Air,0
 Node,93,BREAK_ROOM_0 AIR NODE,Air,0
 Node,94,MECHANICAL_0 AIR NODE,Air,0
 Node,95,OFFICE_OPEN_0 AIR NODE,Air,0
 Node,96,OFFICE_PRIVATE_0 AIR NODE,Air,0
 Node,97,STORAGE_0 AIR NODE,Air,0
 Node,98,CONFERENCE_1 AIR NODE,Air,0
 Node,99,BREAK_ROOM_1 AIR NODE,Air,0
 Node,100,MECHANICAL_1 AIR NODE,Air,0
 Node,101,OFFICE_PRIVATE_1 AIR NODE,Air,0
 Node,102,STORAGE_1 AIR NODE,Air,0
 Node,103,LOBBY_2 AIR NODE,Air,0
 Node,104,CONFERENCE_2 AIR NODE,Air,0
 Node,105,MECHANICAL_2 AIR NODE,Air,0
 Node,106,OFFICE_OPEN_2 AIR NODE,Air,0
 Node,107,OFFICE_PRIVATE_2 AIR NODE,Air,0
 Node,108,STORAGE_2 AIR NODE,Air,0
 Node,109,LOBBY_0_Z1_ZONEEQUIPMENTINLET,Air,2
 Node,110,CONFERENCE_0_Z2_ZONEEQUIPMENTINLET,Air,2
 Node,111,BREAK_ROOM_0_Z3_ZONEEQUIPMENTINLET,Air,2
 Node,112,MECHANICAL_0_Z4_ZONEEQUIPMENTINLET,Air,2
 Node,113,OFFICE_OPEN_0_Z5_ZONEEQUIPMENTINLET,Air,2
 Node,114,OFFICE_PRIVATE_0_Z6_ZONEEQUIPMENTINLET,Air,2
 Node,115,STORAGE_0_Z7_ZONEEQUIPMENTINLET,Air,2
 Node,116,CONFERENCE_1_Z8_ZONEEQUIPMENTINLET,Air,2
 Node,117,BREAK_ROOM_1_Z9_ZONEEQUIPMENTINLET,Air,2
 Node,118,MECHANICAL_1_Z10_ZONEEQUIPMENTINLET,Air,2
 Node,119,OFFICE_PRIVATE_1_Z11_ZONEEQUIPMENTINLET,Air,2
 Node,120,STORAGE_1_Z12_ZONEEQUIPMENTINLET,Air,2
 Node,121,LOBBY_2_Z13_ZONEEQUIPMENTINLET,Air,2
 Node,122,CONFERENCE_2_Z14_ZONEEQUIPMENTINLET,Air,2
 Node,123,MECHANICAL_2_Z15_ZONEEQUIPMENTINLET,Air,2
 Node,124,OFFICE_OPEN_2_Z16_ZONEEQUIPMENTINLET,Air,2
 Node,125,OFFICE_PRIVATE_2_Z17_ZONEEQUIPMENTINLET,Air,2
 Node,126,STORAGE_2_Z18_ZONEEQUIPMENTINLET,Air,2
 Node,127,LOBBY_0_Z1_ZONEEQUIPMENTOUTLETNODE,Air,2
 Node,128,CONFERENCE_0_Z2_ZONEEQUIPMENTOUTLETNODE,Air,2
 Node,129,BREAK_ROOM_0_Z3_ZONEEQUIPMENTOUTLETNODE,Air,2
 Node,130,MECHANICAL_0_Z4_ZONEEQUIPMENTOUTLETNODE,Air,2
 Node,131,OFFICE_OPEN_0_Z5_ZONEEQUIPMENTOUTLETNODE,Air,2
 Node,132,OFFICE_PRIVATE_0_Z6_ZONEEQUIPMENTOUTLETNODE,Air,2
 Node,133,STORAGE_0_Z7_ZONEEQUIPMENTOUTLETNODE,Air,2
 Node,134,CONFERENCE_1_Z8_ZONEEQUIPMENTOUTLETNODE,Air,2
 Node,135,BREAK_ROOM_1_Z9_ZONEEQUIPMENTOUTLETNODE,Air,2
 Node,136,MECHANICAL_1_Z10_ZONEEQUIPMENTOUTLETNODE,Air,2
 Node,137,OFFICE_PRIVATE_1_Z11_ZONEEQUIPMENTOUTLETNODE,Air,2
 Node,138,STORAGE_1_Z12_ZONEEQUIPMENTOUTLETNODE,Air,2
 Node,139,LOBBY_2_Z13_ZONEEQUIPMENTOUTLETNODE,Air,2
 Node,140,CONFERENCE_2_Z14_ZONEEQUIPMENTOUTLETNODE,Air,2
 Node,141,MECHANICAL_2_Z15_ZONEEQUIPMENTOUTLETNODE,Air,2
 Node,142,OFFICE_OPEN_2_Z16_ZONEEQUIPMENTOUTLETNODE,Air,2
 Node,143,OFFICE_PRIVATE_2_Z17_ZONEEQUIPMENTOUTLETNODE,Air,2
 Node,144,STORAGE_2_Z18_ZONEEQUIPMENTOUTLETNODE,Air,2
 Node,145,LOBBY_0_Z1_TERMINALINLET,Air,1
 Node,146,CONFERENCE_0_Z2_TERMINALINLET,Air,1
 Node,147,BREAK_ROOM_0_Z3_TERMINALINLET,Air,1
 Node,148,MECHANICAL_0_Z4_TERMINALINLET,Air,1
 Node,149,OFFICE_OPEN_0_Z5_TERMINALINLET,Air,1
 Node,150,OFFICE_PRIVATE_0_Z6_TERMINALINLET,Air,1
 Node,151,STORAGE_0_Z7_TERMINALINLET,Air,1
 Node,152,CONFERENCE_1_Z8_TERMINALINLET,Air,1
 Node,153,BREAK_ROOM_1_Z9_TERMINALINLET,Air,1
 Node,154,MECHANICAL_1_Z10_TERMINALINLET,Air,1
 Node,155,OFFICE_PRIVATE_1_Z11_TERMINALINLET,Air,1
 Node,156,STORAGE_1_Z12_TERMINALINLET,Air,1
 Node,157,LOBBY_2_Z13_TERMINALINLET,Air,1
 Node,158,CONFERENCE_2_Z14_TERMINALINLET,Air,1
 Node,159,MECHANICAL_2_Z15_TERMINALINLET,Air,1
 Node,160,OFFICE_OPEN_2_Z16_TERMINALINLET,Air,1
 Node,161,OFFICE_PRIVATE_2_Z17_TERMINALINLET,Air,1
 Node,162,STORAGE_2_Z18_TERMINALINLET,Air,1
 Node,163,LOBBY_0_Z1_TERMINALOUTLET,Air,0
 Node,164,CONFERENCE_0_Z2_TERMINALOUTLET,Air,0
 Node,165,BREAK_ROOM_0_Z3_TERMINALOUTLET,Air,0
 Node,166,MECHANICAL_0_Z4_TERMINALOUTLET,Air,0
 Node,167,OFFICE_OPEN_0_Z5_TERMINALOUTLET,Air,0
 Node,168,OFFICE_PRIVATE_0_Z6_TERMINALOUTLET,Air,0
 Node,169,STORAGE_0_Z7_TERMINALOUTLET,Air,0
 Node,170,CONFERENCE_1_Z8_TERMINALOUTLET,Air,0
 Node,171,BREAK_ROOM_1_Z9_TERMINALOUTLET,Air,0
 Node,172,MECHANICAL_1_Z10_TERMINALOUTLET,Air,0
 Node,173,OFFICE_PRIVATE_1_Z11_TERMINALOUTLET,Air,0
 Node,174,STORAGE_1_Z12_TERMINALOUTLET,Air,0
 Node,175,LOBBY_2_Z13_TERMINALOUTLET,Air,0
 Node,176,CONFERENCE_2_Z14_TERMINALOUTLET,Air,0
 Node,177,MECHANICAL_2_Z15_TERMINALOUTLET,Air,0
 Node,178,OFFICE_OPEN_2_Z16_TERMINALOUTLET,Air,0
 Node,179,OFFICE_PRIVATE_2_Z17_TERMINALOUTLET,Air,0
 Node,180,STORAGE_2_Z18_TERMINALOUTLET,Air,0
 Node,181,LOBBY_0_Z1_REHEATINLET,Air,0
 Node,182,CONFERENCE_0_Z2_REHEATINLET,Air,0
 Node,183,BREAK_ROOM_0_Z3_REHEATINLET,Air,0
 Node,184,MECHANICAL_0_Z4_REHEATINLET,Air,0
 Node,185,OFFICE_OPEN_0_Z5_REHEATINLET,Air,0
 Node,186,OFFICE_PRIVATE_0_Z6_REHEATINLET,Air,0
 Node,187,STORAGE_0_Z7_REHEATINLET,Air,0
 Node,188,CONFERENCE_1_Z8_REHEATINLET,Air,0
 Node,189,BREAK_ROOM_1_Z9_REHEATINLET,Air,0
 Node,190,MECHANICAL_1_Z10_REHEATINLET,Air,0
 Node,191,OFFICE_PRIVATE_1_Z11_REHEATINLET,Air,0
 Node,192,STORAGE_1_Z12_REHEATINLET,Air,0
 Node,193,LOBBY_2_Z13_REHEATINLET,Air,0
 Node,194,CONFERENCE_2_Z14_REHEATINLET,Air,0
 Node,195,MECHANICAL_2_Z15_REHEATINLET,Air,0
 Node,196,OFFICE_OPEN_2_Z16_REHEATINLET,Air,0
 Node,197,OFFICE_PRIVATE_2_Z17_REHEATINLET,Air,0
 Node,198,STORAGE_2_Z18_REHEATINLET,Air,0
 Node,199,LOBBY_0_Z1_RETURNAIR,Air,0
 Node,200,CONFERENCE_0_Z2_RETURNAIR,Air,0
 Node,201,BREAK_ROOM_0_Z3_RETURNAIR,Air,0
 Node,202,MECHANICAL_0_Z4_RETURNAIR,Air,0
 Node,203,OFFICE_OPEN_0_Z5_RETURNAIR,Air,0
 Node,204,OFFICE_PRIVATE_0_Z6_RETURNAIR,Air,0
 Node,205,STORAGE_0_Z7_RETURNAIR,Air,0
 Node,206,CONFERENCE_1_Z8_RETURNAIR,Air,0
 Node,207,BREAK_ROOM_1_Z9_RETURNAIR,Air,0
 Node,208,MECHANICAL_1_Z10_RETURNAIR,Air,0
 Node,209,OFFICE_PRIVATE_1_Z11_RETURNAIR,Air,0
 Node,210,STORAGE_1_Z12_RETURNAIR,Air,0
 Node,211,LOBBY_2_Z13_RETURNAIR,Air,0
 Node,212,CONFERENCE_2_Z14_RETURNAIR,Air,0
 Node,213,MECHANICAL_2_Z15_RETURNAIR,Air,0
 Node,214,OFFICE_OPEN_2_Z16_RETURNAIR,Air,0
 Node,215,OFFICE_PRIVATE_2_Z17_RETURNAIR,Air,0
 Node,216,STORAGE_2_Z18_RETURNAIR,Air,0
! ===============================================================
! Suspicious nodes have 0 references.  It is normal for some nodes, however.
! Listing nodes with 0 references (culled from previous list):
! <Suspicious Node>,<NodeNumber>,<Node Name>,<Node Fluid Type>,<# Times Node Referenced After Definition>
 Suspicious Node,91,LOBBY_0 AIR NODE,Air,0
 Suspicious Node,92,CONFERENCE_0 AIR NODE,Air,0
 Suspicious Node,93,BREAK_ROOM_0 AIR NODE,Air,0
 Suspicious Node,94,MECHANICAL_0 AIR NODE,Air,0
 Suspicious Node,95,OFFICE_OPEN_0 AIR NODE,Air,0
 Suspicious Node,96,OFFICE_PRIVATE_0 AIR NODE,Air,0
 Suspicious Node,97,STORAGE_0 AIR NODE,Air,0
 Suspicious Node,98,CONFERENCE_1 AIR NODE,Air,0
 Suspicious Node,99,BREAK_ROOM_1 AIR NODE,Air,0
 Suspicious Node,100,MECHANICAL_1 AIR NODE,Air,0
 Suspicious Node,101,OFFICE_PRIVATE_1 AIR NODE,Air,0
 Suspicious Node,102,STORAGE_1 AIR NODE,Air,0
 Suspicious Node,103,LOBBY_2 AIR NODE,Air,0
 Suspicious Node,104,CONFERENCE_2 AIR NODE,Air,0
 Suspicious Node,105,MECHANICAL_2 AIR NODE,Air,0
 Suspicious Node,106,OFFICE_OPEN_2 AIR NODE,Air,0
 Suspicious Node,107,OFFICE_PRIVATE_2 AIR NODE,Air,0
 Suspicious Node,108,STORAGE_2 AIR NODE,Air,0
 Suspicious Node,163,LOBBY_0_Z1_TERMINALOUTLET,Air,0
 Suspicious Node,164,CONFERENCE_0_Z2_TERMINALOUTLET,Air,0
 Suspicious Node,165,BREAK_ROOM_0_Z3_TERMINALOUTLET,Air,0
 Suspicious Node,166,MECHANICAL_0_Z4_TERMINALOUTLET,Air,0
 Suspicious Node,167,OFFICE_OPEN_0_Z5_TERMINALOUTLET,Air,0
 Suspicious Node,168,OFFICE_PRIVATE_0_Z6_TERMINALOUTLET,Air,0
 Suspicious Node,169,STORAGE_0_Z7_TERMINALOUTLET,Air,0
 Suspicious Node,170,CONFERENCE_1_Z8_TERMINALOUTLET,Air,0
 Suspicious Node,171,BREAK_ROOM_1_Z9_TERMINALOUTLET,Air,0
 Suspicious Node,172,MECHANICAL_1_Z10_TERMINALOUTLET,Air,0
 Suspicious Node,173,OFFICE_PRIVATE_1_Z11_TERMINALOUTLET,Air,0
 Suspicious Node,174,STORAGE_1_Z12_TERMINALOUTLET,Air,0
 Suspicious Node,175,LOBBY_2_Z13_TERMINALOUTLET,Air,0
 Suspicious Node,176,CONFERENCE_2_Z14_TERMINALOUTLET,Air,0
 Suspicious Node,177,MECHANICAL_2_Z15_TERMINALOUTLET,Air,0
 Suspicious Node,178,OFFICE_OPEN_2_Z16_TERMINALOUTLET,Air,0
 Suspicious Node,179,OFFICE_PRIVATE_2_Z17_TERMINALOUTLET,Air,0
 Suspicious Node,180,STORAGE_2_Z18_TERMINALOUTLET,Air,0
 Suspicious Node,181,LOBBY_0_Z1_REHEATINLET,Air,0
 Suspicious Node,182,CONFERENCE_0_Z2_REHEATINLET,Air,0
 Suspicious Node,183,BREAK_ROOM_0_Z3_REHEATINLET,Air,0
 Suspicious Node,184,MECHANICAL_0_Z4_REHEATINLET,Air,0
 Suspicious Node,185,OFFICE_OPEN_0_Z5_REHEATINLET,Air,0
 Suspicious Node,186,OFFICE_PRIVATE_0_Z6_REHEATINLET,Air,0
 Suspicious Node,187,STORAGE_0_Z7_REHEATINLET,Air,0
 Suspicious Node,188,CONFERENCE_1_Z8_REHEATINLET,Air,0
 Suspicious Node,189,BREAK_ROOM_1_Z9_REHEATINLET,Air,0
 Suspicious Node,190,MECHANICAL_1_Z10_REHEATINLET,Air,0
 Suspicious Node,191,OFFICE_PRIVATE_1_Z11_REHEATINLET,Air,0
 Suspicious Node,192,STORAGE_1_Z12_REHEATINLET,Air,0
 Suspicious Node,193,LOBBY_2_Z13_REHEATINLET,Air,0
 Suspicious Node,194,CONFERENCE_2_Z14_REHEATINLET,Air,0
 Suspicious Node,195,MECHANICAL_2_Z15_REHEATINLET,Air,0
 Suspicious Node,196,OFFICE_OPEN_2_Z16_REHEATINLET,Air,0
 Suspicious Node,197,OFFICE_PRIVATE_2_Z17_REHEATINLET,Air,0
 Suspicious Node,198,STORAGE_2_Z18_REHEATINLET,Air,0
 Suspicious Node,199,LOBBY_0_Z1_RETURNAIR,Air,0
 Suspicious Node,200,CONFERENCE_0_Z2_RETURNAIR,Air,0
 Suspicious Node,201,BREAK_ROOM_0_Z3_RETURNAIR,Air,0
 Suspicious Node,202,MECHANICAL_0_Z4_RETURNAIR,Air,0
 Suspicious Node,203,OFFICE_OPEN_0_Z5_RETURNAIR,Air,0
 Suspicious Node,204,OFFICE_PRIVATE_0_Z6_RETURNAIR,Air,0
 Suspicious Node,205,STORAGE_0_Z7_RETURNAIR,Air,0
 Suspicious Node,206,CONFERENCE_1_Z8_RETURNAIR,Air,0
 Suspicious Node,207,BREAK_ROOM_1_Z9_RETURNAIR,Air,0
 Suspicious Node,208,MECHANICAL_1_Z10_RETURNAIR,Air,0
 Suspicious Node,209,OFFICE_PRIVATE_1_Z11_RETURNAIR,Air,0
 Suspicious Node,210,STORAGE_1_Z12_RETURNAIR,Air,0
 Suspicious Node,211,LOBBY_2_Z13_RETURNAIR,Air,0
 Suspicious Node,212,CONFERENCE_2_Z14_RETURNAIR,Air,0
 Suspicious Node,213,MECHANICAL_2_Z15_RETURNAIR,Air,0
 Suspicious Node,214,OFFICE_OPEN_2_Z16_RETURNAIR,Air,0
 Suspicious Node,215,OFFICE_PRIVATE_2_Z17_RETURNAIR,Air,0
 Suspicious Node,216,STORAGE_2_Z18_RETURNAIR,Air,0
! ===============================================================
! <#Branch Lists>,<Number of Branch Lists>
 #Branch Lists,18
! <Branch List>,<Branch List Count>,<Branch List Name>,<Loop Name>,<Loop Type>,<Number of Branches>
! <Branch>,<Branch Count>,<Branch Name>,<Loop Name>,<Loop Type>,<Branch Inlet Node Name>,<Branch Outlet Node Name>
 Branch List,1,LOBBY_0_Z1_BRANCHLIST,LOBBY_0_Z1_AIRLOOP,Air,1
   Branch,1,LOBBY_0_Z1_MAINBRANCH,LOBBY_0_Z1_AIRLOOP,Air,LOBBY_0_Z1_SUPPLYINLET,LOBBY_0_Z1_SUPPLYEQUIPMENTOUTLETNODE
 Branch List,2,CONFERENCE_0_Z2_BRANCHLIST,CONFERENCE_0_Z2_AIRLOOP,Air,1
   Branch,1,CONFERENCE_0_Z2_MAINBRANCH,CONFERENCE_0_Z2_AIRLOOP,Air,CONFERENCE_0_Z2_SUPPLYINLET,CONFERENCE_0_Z2_SUPPLYEQUIPMENTOUTLETNODE
 Branch List,3,BREAK_ROOM_0_Z3_BRANCHLIST,BREAK_ROOM_0_Z3_AIRLOOP,Air,1
   Branch,1,BREAK_ROOM_0_Z3_MAINBRANCH,BREAK_ROOM_0_Z3_AIRLOOP,Air,BREAK_ROOM_0_Z3_SUPPLYINLET,BREAK_ROOM_0_Z3_SUPPLYEQUIPMENTOUTLETNODE
 Branch List,4,MECHANICAL_0_Z4_BRANCHLIST,MECHANICAL_0_Z4_AIRLOOP,Air,1
   Branch,1,MECHANICAL_0_Z4_MAINBRANCH,MECHANICAL_0_Z4_AIRLOOP,Air,MECHANICAL_0_Z4_SUPPLYINLET,MECHANICAL_0_Z4_SUPPLYEQUIPMENTOUTLETNODE
 Branch List,5,OFFICE_OPEN_0_Z5_BRANCHLIST,OFFICE_OPEN_0_Z5_AIRLOOP,Air,1
   Branch,1,OFFICE_OPEN_0_Z5_MAINBRANCH,OFFICE_OPEN_0_Z5_AIRLOOP,Air,OFFICE_OPEN_0_Z5_SUPPLYINLET,OFFICE_OPEN_0_Z5_SUPPLYEQUIPMENTOUTLETNODE
 Branch List,6,OFFICE_PRIVATE_0_Z6_BRANCHLIST,OFFICE_PRIVATE_0_Z6_AIRLOOP,Air,1
   Branch,1,OFFICE_PRIVATE_0_Z6_MAINBRANCH,OFFICE_PRIVATE_0_Z6_AIRLOOP,Air,OFFICE_PRIVATE_0_Z6_SUPPLYINLET,OFFICE_PRIVATE_0_Z6_SUPPLYEQUIPMENTOUTLETNODE
 Branch List,7,STORAGE_0_Z7_BRANCHLIST,STORAGE_0_Z7_AIRLOOP,Air,1
   Branch,1,STORAGE_0_Z7_MAINBRANCH,STORAGE_0_Z7_AIRLOOP,Air,STORAGE_0_Z7_SUPPLYINLET,STORAGE_0_Z7_SUPPLYEQUIPMENTOUTLETNODE
 Branch List,8,CONFERENCE_1_Z8_BRANCHLIST,CONFERENCE_1_Z8_AIRLOOP,Air,1
   Branch,1,CONFERENCE_1_Z8_MAINBRANCH,CONFERENCE_1_Z8_AIRLOOP,Air,CONFERENCE_1_Z8_SUPPLYINLET,CONFERENCE_1_Z8_SUPPLYEQUIPMENTOUTLETNODE
 Branch List,9,BREAK_ROOM_1_Z9_BRANCHLIST,BREAK_ROOM_1_Z9_AIRLOOP,Air,1
   Branch,1,BREAK_ROOM_1_Z9_MAINBRANCH,BREAK_ROOM_1_Z9_AIRLOOP,Air,BREAK_ROOM_1_Z9_SUPPLYINLET,BREAK_ROOM_1_Z9_SUPPLYEQUIPMENTOUTLETNODE
 Branch List,10,MECHANICAL_1_Z10_BRANCHLIST,MECHANICAL_1_Z10_AIRLOOP,Air,1
   Branch,1,MECHANICAL_1_Z10_MAINBRANCH,MECHANICAL_1_Z10_AIRLOOP,Air,MECHANICAL_1_Z10_SUPPLYINLET,MECHANICAL_1_Z10_SUPPLYEQUIPMENTOUTLETNODE
 Branch List,11,OFFICE_PRIVATE_1_Z11_BRANCHLIST,OFFICE_PRIVATE_1_Z11_AIRLOOP,Air,1
   Branch,1,OFFICE_PRIVATE_1_Z11_MAINBRANCH,OFFICE_PRIVATE_1_Z11_AIRLOOP,Air,OFFICE_PRIVATE_1_Z11_SUPPLYINLET,OFFICE_PRIVATE_1_Z11_SUPPLYEQUIPMENTOUTLETNODE
 Branch List,12,STORAGE_1_Z12_BRANCHLIST,STORAGE_1_Z12_AIRLOOP,Air,1
   Branch,1,STORAGE_1_Z12_MAINBRANCH,STORAGE_1_Z12_AIRLOOP,Air,STORAGE_1_Z12_SUPPLYINLET,STORAGE_1_Z12_SUPPLYEQUIPMENTOUTLETNODE
 Branch List,13,LOBBY_2_Z13_BRANCHLIST,LOBBY_2_Z13_AIRLOOP,Air,1
   Branch,1,LOBBY_2_Z13_MAINBRANCH,LOBBY_2_Z13_AIRLOOP,Air,LOBBY_2_Z13_SUPPLYINLET,LOBBY_2_Z13_SUPPLYEQUIPMENTOUTLETNODE
 Branch List,14,CONFERENCE_2_Z14_BRANCHLIST,CONFERENCE_2_Z14_AIRLOOP,Air,1
   Branch,1,CONFERENCE_2_Z14_MAINBRANCH,CONFERENCE_2_Z14_AIRLOOP,Air,CONFERENCE_2_Z14_SUPPLYINLET,CONFERENCE_2_Z14_SUPPLYEQUIPMENTOUTLETNODE
 Branch List,15,MECHANICAL_2_Z15_BRANCHLIST,MECHANICAL_2_Z15_AIRLOOP,Air,1
   Branch,1,MECHANICAL_2_Z15_MAINBRANCH,MECHANICAL_2_Z15_AIRLOOP,Air,MECHANICAL_2_Z15_SUPPLYINLET,MECHANICAL_2_Z15_SUPPLYEQUIPMENTOUTLETNODE
 Branch List,16,OFFICE_OPEN_2_Z16_BRANCHLIST,OFFICE_OPEN_2_Z16_AIRLOOP,Air,1
   Branch,1,OFFICE_OPEN_2_Z16_MAINBRANCH,OFFICE_OPEN_2_Z16_AIRLOOP,Air,OFFICE_OPEN_2_Z16_SUPPLYINLET,OFFICE_OPEN_2_Z16_SUPPLYEQUIPMENTOUTLETNODE
 Branch List,17,OFFICE_PRIVATE_2_Z17_BRANCHLIST,OFFICE_PRIVATE_2_Z17_AIRLOOP,Air,1
   Branch,1,OFFICE_PRIVATE_2_Z17_MAINBRANCH,OFFICE_PRIVATE_2_Z17_AIRLOOP,Air,OFFICE_PRIVATE_2_Z17_SUPPLYINLET,OFFICE_PRIVATE_2_Z17_SUPPLYEQUIPMENTOUTLETNODE
 Branch List,18,STORAGE_2_Z18_BRANCHLIST,STORAGE_2_Z18_AIRLOOP,Air,1
   Branch,1,STORAGE_2_Z18_MAINBRANCH,STORAGE_2_Z18_AIRLOOP,Air,STORAGE_2_Z18_SUPPLYINLET,STORAGE_2_Z18_SUPPLYEQUIPMENTOUTLETNODE
! ===============================================================
! <#Supply Air Paths>,<Number of Supply Air Paths>
 #Supply Air Paths,18
! <Supply Air Path>,<Supply Air Path Count>,<Supply Air Path Name>,<AirLoopHVAC Name>
! <#Components on Supply Air Path>,<Number of Components>
! <Supply Air Path Component>,<Component Count>,<Component Type>,<Component Name>,<AirLoopHVAC Name>
! <#Outlet Nodes on Supply Air Path Component>,<Number of Nodes>
! <Supply Air Path Component Nodes>,<Node Count>,<Component Type>,<Component Name>,<Inlet Node Name>,<Outlet Node Name>,<AirLoopHVAC Name>
 Supply Air Path,1,LOBBY_0_Z1,LOBBY_0_Z1_AIRLOOP
   #Components on Supply Air Path,1
   Supply Air Path Component,1,AIRLOOPHVAC:ZONESPLITTER,LOBBY_0_Z1_SUPPLYSPLITTER,LOBBY_0_Z1_AIRLOOP
     #Outlet Nodes on Supply Air Path Component,1
     Supply Air Path Component Nodes,1,AIRLOOPHVAC:ZONESPLITTER,LOBBY_0_Z1_SUPPLYSPLITTER,LOBBY_0_Z1_ZONEEQUIPMENTINLET,LOBBY_0_Z1_TERMINALINLET,LOBBY_0_Z1_AIRLOOP
! <#Nodes on Supply Air Path>,<Number of Nodes>
! <Supply Air Path Node>,<Node Type>,<Node Count>,<Node Name>,<AirLoopHVAC Name>
#Nodes on Supply Air Path,2
   Supply Air Path Node,Inlet Node,1,LOBBY_0_Z1_ZONEEQUIPMENTINLET,LOBBY_0_Z1_AIRLOOP
   Supply Air Path Node,Outlet Node,2,LOBBY_0_Z1_TERMINALINLET,LOBBY_0_Z1_AIRLOOP
 Supply Air Path,2,CONFERENCE_0_Z2,CONFERENCE_0_Z2_AIRLOOP
   #Components on Supply Air Path,1
   Supply Air Path Component,1,AIRLOOPHVAC:ZONESPLITTER,CONFERENCE_0_Z2_SUPPLYSPLITTER,CONFERENCE_0_Z2_AIRLOOP
     #Outlet Nodes on Supply Air Path Component,1
     Supply Air Path Component Nodes,1,AIRLOOPHVAC:ZONESPLITTER,CONFERENCE_0_Z2_SUPPLYSPLITTER,CONFERENCE_0_Z2_ZONEEQUIPMENTINLET,CONFERENCE_0_Z2_TERMINALINLET,CONFERENCE_0_Z2_AIRLOOP
! <#Nodes on Supply Air Path>,<Number of Nodes>
! <Supply Air Path Node>,<Node Type>,<Node Count>,<Node Name>,<AirLoopHVAC Name>
#Nodes on Supply Air Path,2
   Supply Air Path Node,Inlet Node,1,CONFERENCE_0_Z2_ZONEEQUIPMENTINLET,CONFERENCE_0_Z2_AIRLOOP
   Supply Air Path Node,Outlet Node,2,CONFERENCE_0_Z2_TERMINALINLET,CONFERENCE_0_Z2_AIRLOOP
 Supply Air Path,3,BREAK_ROOM_0_Z3,BREAK_ROOM_0_Z3_AIRLOOP
   #Components on Supply Air Path,1
   Supply Air Path Component,1,AIRLOOPHVAC:ZONESPLITTER,BREAK_ROOM_0_Z3_SUPPLYSPLITTER,BREAK_ROOM_0_Z3_AIRLOOP
     #Outlet Nodes on Supply Air Path Component,1
     Supply Air Path Component Nodes,1,AIRLOOPHVAC:ZONESPLITTER,BREAK_ROOM_0_Z3_SUPPLYSPLITTER,BREAK_ROOM_0_Z3_ZONEEQUIPMENTINLET,BREAK_ROOM_0_Z3_TERMINALINLET,BREAK_ROOM_0_Z3_AIRLOOP
! <#Nodes on Supply Air Path>,<Number of Nodes>
! <Supply Air Path Node>,<Node Type>,<Node Count>,<Node Name>,<AirLoopHVAC Name>
#Nodes on Supply Air Path,2
   Supply Air Path Node,Inlet Node,1,BREAK_ROOM_0_Z3_ZONEEQUIPMENTINLET,BREAK_ROOM_0_Z3_AIRLOOP
   Supply Air Path Node,Outlet Node,2,BREAK_ROOM_0_Z3_TERMINALINLET,BREAK_ROOM_0_Z3_AIRLOOP
 Supply Air Path,4,MECHANICAL_0_Z4,MECHANICAL_0_Z4_AIRLOOP
   #Components on Supply Air Path,1
   Supply Air Path Component,1,AIRLOOPHVAC:ZONESPLITTER,MECHANICAL_0_Z4_SUPPLYSPLITTER,MECHANICAL_0_Z4_AIRLOOP
     #Outlet Nodes on Supply Air Path Component,1
     Supply Air Path Component Nodes,1,AIRLOOPHVAC:ZONESPLITTER,MECHANICAL_0_Z4_SUPPLYSPLITTER,MECHANICAL_0_Z4_ZONEEQUIPMENTINLET,MECHANICAL_0_Z4_TERMINALINLET,MECHANICAL_0_Z4_AIRLOOP
! <#Nodes on Supply Air Path>,<Number of Nodes>
! <Supply Air Path Node>,<Node Type>,<Node Count>,<Node Name>,<AirLoopHVAC Name>
#Nodes on Supply Air Path,2
   Supply Air Path Node,Inlet Node,1,MECHANICAL_0_Z4_ZONEEQUIPMENTINLET,MECHANICAL_0_Z4_AIRLOOP
   Supply Air Path Node,Outlet Node,2,MECHANICAL_0_Z4_TERMINALINLET,MECHANICAL_0_Z4_AIRLOOP
 Supply Air Path,5,OFFICE_OPEN_0_Z5,OFFICE_OPEN_0_Z5_AIRLOOP
   #Components on Supply Air Path,1
   Supply Air Path Component,1,AIRLOOPHVAC:ZONESPLITTER,OFFICE_OPEN_0_Z5_SUPPLYSPLITTER,OFFICE_OPEN_0_Z5_AIRLOOP
     #Outlet Nodes on Supply Air Path Component,1
     Supply Air Path Component Nodes,1,AIRLOOPHVAC:ZONESPLITTER,OFFICE_OPEN_0_Z5_SUPPLYSPLITTER,OFFICE_OPEN_0_Z5_ZONEEQUIPMENTINLET,OFFICE_OPEN_0_Z5_TERMINALINLET,OFFICE_OPEN_0_Z5_AIRLOOP
! <#Nodes on Supply Air Path>,<Number of Nodes>
! <Supply Air Path Node>,<Node Type>,<Node Count>,<Node Name>,<AirLoopHVAC Name>
#Nodes on Supply Air Path,2
   Supply Air Path Node,Inlet Node,1,OFFICE_OPEN_0_Z5_ZONEEQUIPMENTINLET,OFFICE_OPEN_0_Z5_AIRLOOP
   Supply Air Path Node,Outlet Node,2,OFFICE_OPEN_0_Z5_TERMINALINLET,OFFICE_OPEN_0_Z5_AIRLOOP
 Supply Air Path,6,OFFICE_PRIVATE_0_Z6,OFFICE_PRIVATE_0_Z6_AIRLOOP
   #Components on Supply Air Path,1
   Supply Air Path Component,1,AIRLOOPHVAC:ZONESPLITTER,OFFICE_PRIVATE_0_Z6_SUPPLYSPLITTER,OFFICE_PRIVATE_0_Z6_AIRLOOP
     #Outlet Nodes on Supply Air Path Component,1
     Supply Air Path Component Nodes,1,AIRLOOPHVAC:ZONESPLITTER,OFFICE_PRIVATE_0_Z6_SUPPLYSPLITTER,OFFICE_PRIVATE_0_Z6_ZONEEQUIPMENTINLET,OFFICE_PRIVATE_0_Z6_TERMINALINLET,OFFICE_PRIVATE_0_Z6_AIRLOOP
! <#Nodes on Supply Air Path>,<Number of Nodes>
! <Supply Air Path Node>,<Node Type>,<Node Count>,<Node Name>,<AirLoopHVAC Name>
#Nodes on Supply Air Path,2
   Supply Air Path Node,Inlet Node,1,OFFICE_PRIVATE_0_Z6_ZONEEQUIPMENTINLET,OFFICE_PRIVATE_0_Z6_AIRLOOP
   Supply Air Path Node,Outlet Node,2,OFFICE_PRIVATE_0_Z6_TERMINALINLET,OFFICE_PRIVATE_0_Z6_AIRLOOP
 Supply Air Path,7,STORAGE_0_Z7,STORAGE_0_Z7_AIRLOOP
   #Components on Supply Air Path,1
   Supply Air Path Component,1,AIRLOOPHVAC:ZONESPLITTER,STORAGE_0_Z7_SUPPLYSPLITTER,STORAGE_0_Z7_AIRLOOP
     #Outlet Nodes on Supply Air Path Component,1
     Supply Air Path Component Nodes,1,AIRLOOPHVAC:ZONESPLITTER,STORAGE_0_Z7_SUPPLYSPLITTER,STORAGE_0_Z7_ZONEEQUIPMENTINLET,STORAGE_0_Z7_TERMINALINLET,STORAGE_0_Z7_AIRLOOP
! <#Nodes on Supply Air Path>,<Number of Nodes>
! <Supply Air Path Node>,<Node Type>,<Node Count>,<Node Name>,<AirLoopHVAC Name>
#Nodes on Supply Air Path,2
   Supply Air Path Node,Inlet Node,1,STORAGE_0_Z7_ZONEEQUIPMENTINLET,STORAGE_0_Z7_AIRLOOP
   Supply Air Path Node,Outlet Node,2,STORAGE_0_Z7_TERMINALINLET,STORAGE_0_Z7_AIRLOOP
 Supply Air Path,8,CONFERENCE_1_Z8,CONFERENCE_1_Z8_AIRLOOP
   #Components on Supply Air Path,1
   Supply Air Path Component,1,AIRLOOPHVAC:ZONESPLITTER,CONFERENCE_1_Z8_SUPPLYSPLITTER,CONFERENCE_1_Z8_AIRLOOP
     #Outlet Nodes on Supply Air Path Component,1
     Supply Air Path Component Nodes,1,AIRLOOPHVAC:ZONESPLITTER,CONFERENCE_1_Z8_SUPPLYSPLITTER,CONFERENCE_1_Z8_ZONEEQUIPMENTINLET,CONFERENCE_1_Z8_TERMINALINLET,CONFERENCE_1_Z8_AIRLOOP
! <#Nodes on Supply Air Path>,<Number of Nodes>
! <Supply Air Path Node>,<Node Type>,<Node Count>,<Node Name>,<AirLoopHVAC Name>
#Nodes on Supply Air Path,2
   Supply Air Path Node,Inlet Node,1,CONFERENCE_1_Z8_ZONEEQUIPMENTINLET,CONFERENCE_1_Z8_AIRLOOP
   Supply Air Path Node,Outlet Node,2,CONFERENCE_1_Z8_TERMINALINLET,CONFERENCE_1_Z8_AIRLOOP
 Supply Air Path,9,BREAK_ROOM_1_Z9,BREAK_ROOM_1_Z9_AIRLOOP
   #Components on Supply Air Path,1
   Supply Air Path Component,1,AIRLOOPHVAC:ZONESPLITTER,BREAK_ROOM_1_Z9_SUPPLYSPLITTER,BREAK_ROOM_1_Z9_AIRLOOP
     #Outlet Nodes on Supply Air Path Component,1
     Supply Air Path Component Nodes,1,AIRLOOPHVAC:ZONESPLITTER,BREAK_ROOM_1_Z9_SUPPLYSPLITTER,BREAK_ROOM_1_Z9_ZONEEQUIPMENTINLET,BREAK_ROOM_1_Z9_TERMINALINLET,BREAK_ROOM_1_Z9_AIRLOOP
! <#Nodes on Supply Air Path>,<Number of Nodes>
! <Supply Air Path Node>,<Node Type>,<Node Count>,<Node Name>,<AirLoopHVAC Name>
#Nodes on Supply Air Path,2
   Supply Air Path Node,Inlet Node,1,BREAK_ROOM_1_Z9_ZONEEQUIPMENTINLET,BREAK_ROOM_1_Z9_AIRLOOP
   Supply Air Path Node,Outlet Node,2,BREAK_ROOM_1_Z9_TERMINALINLET,BREAK_ROOM_1_Z9_AIRLOOP
 Supply Air Path,10,MECHANICAL_1_Z10,MECHANICAL_1_Z10_AIRLOOP
   #Components on Supply Air Path,1
   Supply Air Path Component,1,AIRLOOPHVAC:ZONESPLITTER,MECHANICAL_1_Z10_SUPPLYSPLITTER,MECHANICAL_1_Z10_AIRLOOP
     #Outlet Nodes on Supply Air Path Component,1
     Supply Air Path Component Nodes,1,AIRLOOPHVAC:ZONESPLITTER,MECHANICAL_1_Z10_SUPPLYSPLITTER,MECHANICAL_1_Z10_ZONEEQUIPMENTINLET,MECHANICAL_1_Z10_TERMINALINLET,MECHANICAL_1_Z10_AIRLOOP
! <#Nodes on Supply Air Path>,<Number of Nodes>
! <Supply Air Path Node>,<Node Type>,<Node Count>,<Node Name>,<AirLoopHVAC Name>
#Nodes on Supply Air Path,2
   Supply Air Path Node,Inlet Node,1,MECHANICAL_1_Z10_ZONEEQUIPMENTINLET,MECHANICAL_1_Z10_AIRLOOP
   Supply Air Path Node,Outlet Node,2,MECHANICAL_1_Z10_TERMINALINLET,MECHANICAL_1_Z10_AIRLOOP
 Supply Air Path,11,OFFICE_PRIVATE_1_Z11,OFFICE_PRIVATE_1_Z11_AIRLOOP
   #Components on Supply Air Path,1
   Supply Air Path Component,1,AIRLOOPHVAC:ZONESPLITTER,OFFICE_PRIVATE_1_Z11_SUPPLYSPLITTER,OFFICE_PRIVATE_1_Z11_AIRLOOP
     #Outlet Nodes on Supply Air Path Component,1
     Supply Air Path Component Nodes,1,AIRLOOPHVAC:ZONESPLITTER,OFFICE_PRIVATE_1_Z11_SUPPLYSPLITTER,OFFICE_PRIVATE_1_Z11_ZONEEQUIPMENTINLET,OFFICE_PRIVATE_1_Z11_TERMINALINLET,OFFICE_PRIVATE_1_Z11_AIRLOOP
! <#Nodes on Supply Air Path>,<Number of Nodes>
! <Supply Air Path Node>,<Node Type>,<Node Count>,<Node Name>,<AirLoopHVAC Name>
#Nodes on Supply Air Path,2
   Supply Air Path Node,Inlet Node,1,OFFICE_PRIVATE_1_Z11_ZONEEQUIPMENTINLET,OFFICE_PRIVATE_1_Z11_AIRLOOP
   Supply Air Path Node,Outlet Node,2,OFFICE_PRIVATE_1_Z11_TERMINALINLET,OFFICE_PRIVATE_1_Z11_AIRLOOP
 Supply Air Path,12,STORAGE_1_Z12,STORAGE_1_Z12_AIRLOOP
   #Components on Supply Air Path,1
   Supply Air Path Component,1,AIRLOOPHVAC:ZONESPLITTER,STORAGE_1_Z12_SUPPLYSPLITTER,STORAGE_1_Z12_AIRLOOP
     #Outlet Nodes on Supply Air Path Component,1
     Supply Air Path Component Nodes,1,AIRLOOPHVAC:ZONESPLITTER,STORAGE_1_Z12_SUPPLYSPLITTER,STORAGE_1_Z12_ZONEEQUIPMENTINLET,STORAGE_1_Z12_TERMINALINLET,STORAGE_1_Z12_AIRLOOP
! <#Nodes on Supply Air Path>,<Number of Nodes>
! <Supply Air Path Node>,<Node Type>,<Node Count>,<Node Name>,<AirLoopHVAC Name>
#Nodes on Supply Air Path,2
   Supply Air Path Node,Inlet Node,1,STORAGE_1_Z12_ZONEEQUIPMENTINLET,STORAGE_1_Z12_AIRLOOP
   Supply Air Path Node,Outlet Node,2,STORAGE_1_Z12_TERMINALINLET,STORAGE_1_Z12_AIRLOOP
 Supply Air Path,13,LOBBY_2_Z13,LOBBY_2_Z13_AIRLOOP
   #Components on Supply Air Path,1
   Supply Air Path Component,1,AIRLOOPHVAC:ZONESPLITTER,LOBBY_2_Z13_SUPPLYSPLITTER,LOBBY_2_Z13_AIRLOOP
     #Outlet Nodes on Supply Air Path Component,1
     Supply Air Path Component Nodes,1,AIRLOOPHVAC:ZONESPLITTER,LOBBY_2_Z13_SUPPLYSPLITTER,LOBBY_2_Z13_ZONEEQUIPMENTINLET,LOBBY_2_Z13_TERMINALINLET,LOBBY_2_Z13_AIRLOOP
! <#Nodes on Supply Air Path>,<Number of Nodes>
! <Supply Air Path Node>,<Node Type>,<Node Count>,<Node Name>,<AirLoopHVAC Name>
#Nodes on Supply Air Path,2
   Supply Air Path Node,Inlet Node,1,LOBBY_2_Z13_ZONEEQUIPMENTINLET,LOBBY_2_Z13_AIRLOOP
   Supply Air Path Node,Outlet Node,2,LOBBY_2_Z13_TERMINALINLET,LOBBY_2_Z13_AIRLOOP
 Supply Air Path,14,CONFERENCE_2_Z14,CONFERENCE_2_Z14_AIRLOOP
   #Components on Supply Air Path,1
   Supply Air Path Component,1,AIRLOOPHVAC:ZONESPLITTER,CONFERENCE_2_Z14_SUPPLYSPLITTER,CONFERENCE_2_Z14_AIRLOOP
     #Outlet Nodes on Supply Air Path Component,1
     Supply Air Path Component Nodes,1,AIRLOOPHVAC:ZONESPLITTER,CONFERENCE_2_Z14_SUPPLYSPLITTER,CONFERENCE_2_Z14_ZONEEQUIPMENTINLET,CONFERENCE_2_Z14_TERMINALINLET,CONFERENCE_2_Z14_AIRLOOP
! <#Nodes on Supply Air Path>,<Number of Nodes>
! <Supply Air Path Node>,<Node Type>,<Node Count>,<Node Name>,<AirLoopHVAC Name>
#Nodes on Supply Air Path,2
   Supply Air Path Node,Inlet Node,1,CONFERENCE_2_Z14_ZONEEQUIPMENTINLET,CONFERENCE_2_Z14_AIRLOOP
   Supply Air Path Node,Outlet Node,2,CONFERENCE_2_Z14_TERMINALINLET,CONFERENCE_2_Z14_AIRLOOP
 Supply Air Path,15,MECHANICAL_2_Z15,MECHANICAL_2_Z15_AIRLOOP
   #Components on Supply Air Path,1
   Supply Air Path Component,1,AIRLOOPHVAC:ZONESPLITTER,MECHANICAL_2_Z15_SUPPLYSPLITTER,MECHANICAL_2_Z15_AIRLOOP
     #Outlet Nodes on Supply Air Path Component,1
     Supply Air Path Component Nodes,1,AIRLOOPHVAC:ZONESPLITTER,MECHANICAL_2_Z15_SUPPLYSPLITTER,MECHANICAL_2_Z15_ZONEEQUIPMENTINLET,MECHANICAL_2_Z15_TERMINALINLET,MECHANICAL_2_Z15_AIRLOOP
! <#Nodes on Supply Air Path>,<Number of Nodes>
! <Supply Air Path Node>,<Node Type>,<Node Count>,<Node Name>,<AirLoopHVAC Name>
#Nodes on Supply Air Path,2
   Supply Air Path Node,Inlet Node,1,MECHANICAL_2_Z15_ZONEEQUIPMENTINLET,MECHANICAL_2_Z15_AIRLOOP
   Supply Air Path Node,Outlet Node,2,MECHANICAL_2_Z15_TERMINALINLET,MECHANICAL_2_Z15_AIRLOOP
 Supply Air Path,16,OFFICE_OPEN_2_Z16,OFFICE_OPEN_2_Z16_AIRLOOP
   #Components on Supply Air Path,1
   Supply Air Path Component,1,AIRLOOPHVAC:ZONESPLITTER,OFFICE_OPEN_2_Z16_SUPPLYSPLITTER,OFFICE_OPEN_2_Z16_AIRLOOP
     #Outlet Nodes on Supply Air Path Component,1
     Supply Air Path Component Nodes,1,AIRLOOPHVAC:ZONESPLITTER,OFFICE_OPEN_2_Z16_SUPPLYSPLITTER,OFFICE_OPEN_2_Z16_ZONEEQUIPMENTINLET,OFFICE_OPEN_2_Z16_TERMINALINLET,OFFICE_OPEN_2_Z16_AIRLOOP
! <#Nodes on Supply Air Path>,<Number of Nodes>
! <Supply Air Path Node>,<Node Type>,<Node Count>,<Node Name>,<AirLoopHVAC Name>
#Nodes on Supply Air Path,2
   Supply Air Path Node,Inlet Node,1,OFFICE_OPEN_2_Z16_ZONEEQUIPMENTINLET,OFFICE_OPEN_2_Z16_AIRLOOP
   Supply Air Path Node,Outlet Node,2,OFFICE_OPEN_2_Z16_TERMINALINLET,OFFICE_OPEN_2_Z16_AIRLOOP
 Supply Air Path,17,OFFICE_PRIVATE_2_Z17,OFFICE_PRIVATE_2_Z17_AIRLOOP
   #Components on Supply Air Path,1
   Supply Air Path Component,1,AIRLOOPHVAC:ZONESPLITTER,OFFICE_PRIVATE_2_Z17_SUPPLYSPLITTER,OFFICE_PRIVATE_2_Z17_AIRLOOP
     #Outlet Nodes on Supply Air Path Component,1
     Supply Air Path Component Nodes,1,AIRLOOPHVAC:ZONESPLITTER,OFFICE_PRIVATE_2_Z17_SUPPLYSPLITTER,OFFICE_PRIVATE_2_Z17_ZONEEQUIPMENTINLET,OFFICE_PRIVATE_2_Z17_TERMINALINLET,OFFICE_PRIVATE_2_Z17_AIRLOOP
! <#Nodes on Supply Air Path>,<Number of Nodes>
! <Supply Air Path Node>,<Node Type>,<Node Count>,<Node Name>,<AirLoopHVAC Name>
#Nodes on Supply Air Path,2
   Supply Air Path Node,Inlet Node,1,OFFICE_PRIVATE_2_Z17_ZONEEQUIPMENTINLET,OFFICE_PRIVATE_2_Z17_AIRLOOP
   Supply Air Path Node,Outlet Node,2,OFFICE_PRIVATE_2_Z17_TERMINALINLET,OFFICE_PRIVATE_2_Z17_AIRLOOP
 Supply Air Path,18,STORAGE_2_Z18,STORAGE_2_Z18_AIRLOOP
   #Components on Supply Air Path,1
   Supply Air Path Component,1,AIRLOOPHVAC:ZONESPLITTER,STORAGE_2_Z18_SUPPLYSPLITTER,STORAGE_2_Z18_AIRLOOP
     #Outlet Nodes on Supply Air Path Component,1
     Supply Air Path Component Nodes,1,AIRLOOPHVAC:ZONESPLITTER,STORAGE_2_Z18_SUPPLYSPLITTER,STORAGE_2_Z18_ZONEEQUIPMENTINLET,STORAGE_2_Z18_TERMINALINLET,STORAGE_2_Z18_AIRLOOP
! <#Nodes on Supply Air Path>,<Number of Nodes>
! <Supply Air Path Node>,<Node Type>,<Node Count>,<Node Name>,<AirLoopHVAC Name>
#Nodes on Supply Air Path,2
   Supply Air Path Node,Inlet Node,1,STORAGE_2_Z18_ZONEEQUIPMENTINLET,STORAGE_2_Z18_AIRLOOP
   Supply Air Path Node,Outlet Node,2,STORAGE_2_Z18_TERMINALINLET,STORAGE_2_Z18_AIRLOOP
! ===============================================================
! <#Return Air Paths>,<Number of Return Air Paths>
 #Return Air Paths,18
! <Return Air Path>,<Return Air Path Count>,<Return Air Path Name>,<AirLoopHVAC Name>
! <#Components on Return Air Path>,<Number of Components>
! <Return Air Path Component>,<Component Count>,<Component Type>,<Component Name>,<AirLoopHVAC Name>
! <#Inlet Nodes on Return Air Path Component>,<Number of Nodes>
! <Return Air Path Component Nodes>,<Node Count>,<Component Type>,<Component Name>,<Inlet Node Name>,<Outlet Node Name>,<AirLoopHVAC Name>
 Return Air Path,1,LOBBY_0_Z1_RETURNAIRPATH,LOBBY_0_Z1_AIRLOOP
   #Components on Return Air Path,1
   Return Air Path Component,1,AIRLOOPHVAC:ZONEMIXER,LOBBY_0_Z1_RETURNAIRMIXER,LOBBY_0_Z1_AIRLOOP
     #Inlet Nodes on Return Air Path Component,1
     Return Air Path Component Nodes,1,AIRLOOPHVAC:ZONEMIXER,LOBBY_0_Z1_RETURNAIRMIXER,LOBBY_0_Z1_RETURNAIR,LOBBY_0_Z1_ZONEEQUIPMENTOUTLETNODE,LOBBY_0_Z1_AIRLOOP
! <#Nodes on Return Air Path>,<Number of Nodes>
! <Return Air Path Node>,<Node Type>,<Node Count>,<Node Name>,<AirLoopHVAC Name>
   #Nodes on Return Air Path,2
   Return Air Path Node,Outlet Node,1,LOBBY_0_Z1_ZONEEQUIPMENTOUTLETNODE,LOBBY_0_Z1_AIRLOOP
   Return Air Path Node,Inlet Node,2,LOBBY_0_Z1_RETURNAIR,LOBBY_0_Z1_AIRLOOP
 Return Air Path,2,CONFERENCE_0_Z2_RETURNAIRPATH,CONFERENCE_0_Z2_AIRLOOP
   #Components on Return Air Path,1
   Return Air Path Component,1,AIRLOOPHVAC:ZONEMIXER,CONFERENCE_0_Z2_RETURNAIRMIXER,CONFERENCE_0_Z2_AIRLOOP
     #Inlet Nodes on Return Air Path Component,1
     Return Air Path Component Nodes,1,AIRLOOPHVAC:ZONEMIXER,CONFERENCE_0_Z2_RETURNAIRMIXER,CONFERENCE_0_Z2_RETURNAIR,CONFERENCE_0_Z2_ZONEEQUIPMENTOUTLETNODE,CONFERENCE_0_Z2_AIRLOOP
! <#Nodes on Return Air Path>,<Number of Nodes>
! <Return Air Path Node>,<Node Type>,<Node Count>,<Node Name>,<AirLoopHVAC Name>
   #Nodes on Return Air Path,2
   Return Air Path Node,Outlet Node,1,CONFERENCE_0_Z2_ZONEEQUIPMENTOUTLETNODE,CONFERENCE_0_Z2_AIRLOOP
   Return Air Path Node,Inlet Node,2,CONFERENCE_0_Z2_RETURNAIR,CONFERENCE_0_Z2_AIRLOOP
 Return Air Path,3,BREAK_ROOM_0_Z3_RETURNAIRPATH,BREAK_ROOM_0_Z3_AIRLOOP
   #Components on Return Air Path,1
   Return Air Path Component,1,AIRLOOPHVAC:ZONEMIXER,BREAK_ROOM_0_Z3_RETURNAIRMIXER,BREAK_ROOM_0_Z3_AIRLOOP
     #Inlet Nodes on Return Air Path Component,1
     Return Air Path Component Nodes,1,AIRLOOPHVAC:ZONEMIXER,BREAK_ROOM_0_Z3_RETURNAIRMIXER,BREAK_ROOM_0_Z3_RETURNAIR,BREAK_ROOM_0_Z3_ZONEEQUIPMENTOUTLETNODE,BREAK_ROOM_0_Z3_AIRLOOP
! <#Nodes on Return Air Path>,<Number of Nodes>
! <Return Air Path Node>,<Node Type>,<Node Count>,<Node Name>,<AirLoopHVAC Name>
   #Nodes on Return Air Path,2
   Return Air Path Node,Outlet Node,1,BREAK_ROOM_0_Z3_ZONEEQUIPMENTOUTLETNODE,BREAK_ROOM_0_Z3_AIRLOOP
   Return Air Path Node,Inlet Node,2,BREAK_ROOM_0_Z3_RETURNAIR,BREAK_ROOM_0_Z3_AIRLOOP
 Return Air Path,4,MECHANICAL_0_Z4_RETURNAIRPATH,MECHANICAL_0_Z4_AIRLOOP
   #Components on Return Air Path,1
   Return Air Path Component,1,AIRLOOPHVAC:ZONEMIXER,MECHANICAL_0_Z4_RETURNAIRMIXER,MECHANICAL_0_Z4_AIRLOOP
     #Inlet Nodes on Return Air Path Component,1
     Return Air Path Component Nodes,1,AIRLOOPHVAC:ZONEMIXER,MECHANICAL_0_Z4_RETURNAIRMIXER,MECHANICAL_0_Z4_RETURNAIR,MECHANICAL_0_Z4_ZONEEQUIPMENTOUTLETNODE,MECHANICAL_0_Z4_AIRLOOP
! <#Nodes on Return Air Path>,<Number of Nodes>
! <Return Air Path Node>,<Node Type>,<Node Count>,<Node Name>,<AirLoopHVAC Name>
   #Nodes on Return Air Path,2
   Return Air Path Node,Outlet Node,1,MECHANICAL_0_Z4_ZONEEQUIPMENTOUTLETNODE,MECHANICAL_0_Z4_AIRLOOP
   Return Air Path Node,Inlet Node,2,MECHANICAL_0_Z4_RETURNAIR,MECHANICAL_0_Z4_AIRLOOP
 Return Air Path,5,OFFICE_OPEN_0_Z5_RETURNAIRPATH,OFFICE_OPEN_0_Z5_AIRLOOP
   #Components on Return Air Path,1
   Return Air Path Component,1,AIRLOOPHVAC:ZONEMIXER,OFFICE_OPEN_0_Z5_RETURNAIRMIXER,OFFICE_OPEN_0_Z5_AIRLOOP
     #Inlet Nodes on Return Air Path Component,1
     Return Air Path Component Nodes,1,AIRLOOPHVAC:ZONEMIXER,OFFICE_OPEN_0_Z5_RETURNAIRMIXER,OFFICE_OPEN_0_Z5_RETURNAIR,OFFICE_OPEN_0_Z5_ZONEEQUIPMENTOUTLETNODE,OFFICE_OPEN_0_Z5_AIRLOOP
! <#Nodes on Return Air Path>,<Number of Nodes>
! <Return Air Path Node>,<Node Type>,<Node Count>,<Node Name>,<AirLoopHVAC Name>
   #Nodes on Return Air Path,2
   Return Air Path Node,Outlet Node,1,OFFICE_OPEN_0_Z5_ZONEEQUIPMENTOUTLETNODE,OFFICE_OPEN_0_Z5_AIRLOOP
   Return Air Path Node,Inlet Node,2,OFFICE_OPEN_0_Z5_RETURNAIR,OFFICE_OPEN_0_Z5_AIRLOOP
 Return Air Path,6,OFFICE_PRIVATE_0_Z6_RETURNAIRPATH,OFFICE_PRIVATE_0_Z6_AIRLOOP
   #Components on Return Air Path,1
   Return Air Path Component,1,AIRLOOPHVAC:ZONEMIXER,OFFICE_PRIVATE_0_Z6_RETURNAIRMIXER,OFFICE_PRIVATE_0_Z6_AIRLOOP
     #Inlet Nodes on Return Air Path Component,1
     Return Air Path Component Nodes,1,AIRLOOPHVAC:ZONEMIXER,OFFICE_PRIVATE_0_Z6_RETURNAIRMIXER,OFFICE_PRIVATE_0_Z6_RETURNAIR,OFFICE_PRIVATE_0_Z6_ZONEEQUIPMENTOUTLETNODE,OFFICE_PRIVATE_0_Z6_AIRLOOP
! <#Nodes on Return Air Path>,<Number of Nodes>
! <Return Air Path Node>,<Node Type>,<Node Count>,<Node Name>,<AirLoopHVAC Name>
   #Nodes on Return Air Path,2
   Return Air Path Node,Outlet Node,1,OFFICE_PRIVATE_0_Z6_ZONEEQUIPMENTOUTLETNODE,OFFICE_PRIVATE_0_Z6_AIRLOOP
   Return Air Path Node,Inlet Node,2,OFFICE_PRIVATE_0_Z6_RETURNAIR,OFFICE_PRIVATE_0_Z6_AIRLOOP
 Return Air Path,7,STORAGE_0_Z7_RETURNAIRPATH,STORAGE_0_Z7_AIRLOOP
   #Components on Return Air Path,1
   Return Air Path Component,1,AIRLOOPHVAC:ZONEMIXER,STORAGE_0_Z7_RETURNAIRMIXER,STORAGE_0_Z7_AIRLOOP
     #Inlet Nodes on Return Air Path Component,1
     Return Air Path Component Nodes,1,AIRLOOPHVAC:ZONEMIXER,STORAGE_0_Z7_RETURNAIRMIXER,STORAGE_0_Z7_RETURNAIR,STORAGE_0_Z7_ZONEEQUIPMENTOUTLETNODE,STORAGE_0_Z7_AIRLOOP
! <#Nodes on Return Air Path>,<Number of Nodes>
! <Return Air Path Node>,<Node Type>,<Node Count>,<Node Name>,<AirLoopHVAC Name>
   #Nodes on Return Air Path,2
   Return Air Path Node,Outlet Node,1,STORAGE_0_Z7_ZONEEQUIPMENTOUTLETNODE,STORAGE_0_Z7_AIRLOOP
   Return Air Path Node,Inlet Node,2,STORAGE_0_Z7_RETURNAIR,STORAGE_0_Z7_AIRLOOP
 Return Air Path,8,CONFERENCE_1_Z8_RETURNAIRPATH,CONFERENCE_1_Z8_AIRLOOP
   #Components on Return Air Path,1
   Return Air Path Component,1,AIRLOOPHVAC:ZONEMIXER,CONFERENCE_1_Z8_RETURNAIRMIXER,CONFERENCE_1_Z8_AIRLOOP
     #Inlet Nodes on Return Air Path Component,1
     Return Air Path Component Nodes,1,AIRLOOPHVAC:ZONEMIXER,CONFERENCE_1_Z8_RETURNAIRMIXER,CONFERENCE_1_Z8_RETURNAIR,CONFERENCE_1_Z8_ZONEEQUIPMENTOUTLETNODE,CONFERENCE_1_Z8_AIRLOOP
! <#Nodes on Return Air Path>,<Number of Nodes>
! <Return Air Path Node>,<Node Type>,<Node Count>,<Node Name>,<AirLoopHVAC Name>
   #Nodes on Return Air Path,2
   Return Air Path Node,Outlet Node,1,CONFERENCE_1_Z8_ZONEEQUIPMENTOUTLETNODE,CONFERENCE_1_Z8_AIRLOOP
   Return Air Path Node,Inlet Node,2,CONFERENCE_1_Z8_RETURNAIR,CONFERENCE_1_Z8_AIRLOOP
 Return Air Path,9,BREAK_ROOM_1_Z9_RETURNAIRPATH,BREAK_ROOM_1_Z9_AIRLOOP
   #Components on Return Air Path,1
   Return Air Path Component,1,AIRLOOPHVAC:ZONEMIXER,BREAK_ROOM_1_Z9_RETURNAIRMIXER,BREAK_ROOM_1_Z9_AIRLOOP
     #Inlet Nodes on Return Air Path Component,1
     Return Air Path Component Nodes,1,AIRLOOPHVAC:ZONEMIXER,BREAK_ROOM_1_Z9_RETURNAIRMIXER,BREAK_ROOM_1_Z9_RETURNAIR,BREAK_ROOM_1_Z9_ZONEEQUIPMENTOUTLETNODE,BREAK_ROOM_1_Z9_AIRLOOP
! <#Nodes on Return Air Path>,<Number of Nodes>
! <Return Air Path Node>,<Node Type>,<Node Count>,<Node Name>,<AirLoopHVAC Name>
   #Nodes on Return Air Path,2
   Return Air Path Node,Outlet Node,1,BREAK_ROOM_1_Z9_ZONEEQUIPMENTOUTLETNODE,BREAK_ROOM_1_Z9_AIRLOOP
   Return Air Path Node,Inlet Node,2,BREAK_ROOM_1_Z9_RETURNAIR,BREAK_ROOM_1_Z9_AIRLOOP
 Return Air Path,10,MECHANICAL_1_Z10_RETURNAIRPATH,MECHANICAL_1_Z10_AIRLOOP
   #Components on Return Air Path,1
   Return Air Path Component,1,AIRLOOPHVAC:ZONEMIXER,MECHANICAL_1_Z10_RETURNAIRMIXER,MECHANICAL_1_Z10_AIRLOOP
     #Inlet Nodes on Return Air Path Component,1
     Return Air Path Component Nodes,1,AIRLOOPHVAC:ZONEMIXER,MECHANICAL_1_Z10_RETURNAIRMIXER,MECHANICAL_1_Z10_RETURNAIR,MECHANICAL_1_Z10_ZONEEQUIPMENTOUTLETNODE,MECHANICAL_1_Z10_AIRLOOP
! <#Nodes on Return Air Path>,<Number of Nodes>
! <Return Air Path Node>,<Node Type>,<Node Count>,<Node Name>,<AirLoopHVAC Name>
   #Nodes on Return Air Path,2
   Return Air Path Node,Outlet Node,1,MECHANICAL_1_Z10_ZONEEQUIPMENTOUTLETNODE,MECHANICAL_1_Z10_AIRLOOP
   Return Air Path Node,Inlet Node,2,MECHANICAL_1_Z10_RETURNAIR,MECHANICAL_1_Z10_AIRLOOP
 Return Air Path,11,OFFICE_PRIVATE_1_Z11_RETURNAIRPATH,OFFICE_PRIVATE_1_Z11_AIRLOOP
   #Components on Return Air Path,1
   Return Air Path Component,1,AIRLOOPHVAC:ZONEMIXER,OFFICE_PRIVATE_1_Z11_RETURNAIRMIXER,OFFICE_PRIVATE_1_Z11_AIRLOOP
     #Inlet Nodes on Return Air Path Component,1
     Return Air Path Component Nodes,1,AIRLOOPHVAC:ZONEMIXER,OFFICE_PRIVATE_1_Z11_RETURNAIRMIXER,OFFICE_PRIVATE_1_Z11_RETURNAIR,OFFICE_PRIVATE_1_Z11_ZONEEQUIPMENTOUTLETNODE,OFFICE_PRIVATE_1_Z11_AIRLOOP
! <#Nodes on Return Air Path>,<Number of Nodes>
! <Return Air Path Node>,<Node Type>,<Node Count>,<Node Name>,<AirLoopHVAC Name>
   #Nodes on Return Air Path,2
   Return Air Path Node,Outlet Node,1,OFFICE_PRIVATE_1_Z11_ZONEEQUIPMENTOUTLETNODE,OFFICE_PRIVATE_1_Z11_AIRLOOP
   Return Air Path Node,Inlet Node,2,OFFICE_PRIVATE_1_Z11_RETURNAIR,OFFICE_PRIVATE_1_Z11_AIRLOOP
 Return Air Path,12,STORAGE_1_Z12_RETURNAIRPATH,STORAGE_1_Z12_AIRLOOP
   #Components on Return Air Path,1
   Return Air Path Component,1,AIRLOOPHVAC:ZONEMIXER,STORAGE_1_Z12_RETURNAIRMIXER,STORAGE_1_Z12_AIRLOOP
     #Inlet Nodes on Return Air Path Component,1
     Return Air Path Component Nodes,1,AIRLOOPHVAC:ZONEMIXER,STORAGE_1_Z12_RETURNAIRMIXER,STORAGE_1_Z12_RETURNAIR,STORAGE_1_Z12_ZONEEQUIPMENTOUTLETNODE,STORAGE_1_Z12_AIRLOOP
! <#Nodes on Return Air Path>,<Number of Nodes>
! <Return Air Path Node>,<Node Type>,<Node Count>,<Node Name>,<AirLoopHVAC Name>
   #Nodes on Return Air Path,2
   Return Air Path Node,Outlet Node,1,STORAGE_1_Z12_ZONEEQUIPMENTOUTLETNODE,STORAGE_1_Z12_AIRLOOP
   Return Air Path Node,Inlet Node,2,STORAGE_1_Z12_RETURNAIR,STORAGE_1_Z12_AIRLOOP
 Return Air Path,13,LOBBY_2_Z13_RETURNAIRPATH,LOBBY_2_Z13_AIRLOOP
   #Components on Return Air Path,1
   Return Air Path Component,1,AIRLOOPHVAC:ZONEMIXER,LOBBY_2_Z13_RETURNAIRMIXER,LOBBY_2_Z13_AIRLOOP
     #Inlet Nodes on Return Air Path Component,1
     Return Air Path Component Nodes,1,AIRLOOPHVAC:ZONEMIXER,LOBBY_2_Z13_RETURNAIRMIXER,LOBBY_2_Z13_RETURNAIR,LOBBY_2_Z13_ZONEEQUIPMENTOUTLETNODE,LOBBY_2_Z13_AIRLOOP
! <#Nodes on Return Air Path>,<Number of Nodes>
! <Return Air Path Node>,<Node Type>,<Node Count>,<Node Name>,<AirLoopHVAC Name>
   #Nodes on Return Air Path,2
   Return Air Path Node,Outlet Node,1,LOBBY_2_Z13_ZONEEQUIPMENTOUTLETNODE,LOBBY_2_Z13_AIRLOOP
   Return Air Path Node,Inlet Node,2,LOBBY_2_Z13_RETURNAIR,LOBBY_2_Z13_AIRLOOP
 Return Air Path,14,CONFERENCE_2_Z14_RETURNAIRPATH,CONFERENCE_2_Z14_AIRLOOP
   #Components on Return Air Path,1
   Return Air Path Component,1,AIRLOOPHVAC:ZONEMIXER,CONFERENCE_2_Z14_RETURNAIRMIXER,CONFERENCE_2_Z14_AIRLOOP
     #Inlet Nodes on Return Air Path Component,1
     Return Air Path Component Nodes,1,AIRLOOPHVAC:ZONEMIXER,CONFERENCE_2_Z14_RETURNAIRMIXER,CONFERENCE_2_Z14_RETURNAIR,CONFERENCE_2_Z14_ZONEEQUIPMENTOUTLETNODE,CONFERENCE_2_Z14_AIRLOOP
! <#Nodes on Return Air Path>,<Number of Nodes>
! <Return Air Path Node>,<Node Type>,<Node Count>,<Node Name>,<AirLoopHVAC Name>
   #Nodes on Return Air Path,2
   Return Air Path Node,Outlet Node,1,CONFERENCE_2_Z14_ZONEEQUIPMENTOUTLETNODE,CONFERENCE_2_Z14_AIRLOOP
   Return Air Path Node,Inlet Node,2,CONFERENCE_2_Z14_RETURNAIR,CONFERENCE_2_Z14_AIRLOOP
 Return Air Path,15,MECHANICAL_2_Z15_RETURNAIRPATH,MECHANICAL_2_Z15_AIRLOOP
   #Components on Return Air Path,1
   Return Air Path Component,1,AIRLOOPHVAC:ZONEMIXER,MECHANICAL_2_Z15_RETURNAIRMIXER,MECHANICAL_2_Z15_AIRLOOP
     #Inlet Nodes on Return Air Path Component,1
     Return Air Path Component Nodes,1,AIRLOOPHVAC:ZONEMIXER,MECHANICAL_2_Z15_RETURNAIRMIXER,MECHANICAL_2_Z15_RETURNAIR,MECHANICAL_2_Z15_ZONEEQUIPMENTOUTLETNODE,MECHANICAL_2_Z15_AIRLOOP
! <#Nodes on Return Air Path>,<Number of Nodes>
! <Return Air Path Node>,<Node Type>,<Node Count>,<Node Name>,<AirLoopHVAC Name>
   #Nodes on Return Air Path,2
   Return Air Path Node,Outlet Node,1,MECHANICAL_2_Z15_ZONEEQUIPMENTOUTLETNODE,MECHANICAL_2_Z15_AIRLOOP
   Return Air Path Node,Inlet Node,2,MECHANICAL_2_Z15_RETURNAIR,MECHANICAL_2_Z15_AIRLOOP
 Return Air Path,16,OFFICE_OPEN_2_Z16_RETURNAIRPATH,OFFICE_OPEN_2_Z16_AIRLOOP
   #Components on Return Air Path,1
   Return Air Path Component,1,AIRLOOPHVAC:ZONEMIXER,OFFICE_OPEN_2_Z16_RETURNAIRMIXER,OFFICE_OPEN_2_Z16_AIRLOOP
     #Inlet Nodes on Return Air Path Component,1
     Return Air Path Component Nodes,1,AIRLOOPHVAC:ZONEMIXER,OFFICE_OPEN_2_Z16_RETURNAIRMIXER,OFFICE_OPEN_2_Z16_RETURNAIR,OFFICE_OPEN_2_Z16_ZONEEQUIPMENTOUTLETNODE,OFFICE_OPEN_2_Z16_AIRLOOP
! <#Nodes on Return Air Path>,<Number of Nodes>
! <Return Air Path Node>,<Node Type>,<Node Count>,<Node Name>,<AirLoopHVAC Name>
   #Nodes on Return Air Path,2
   Return Air Path Node,Outlet Node,1,OFFICE_OPEN_2_Z16_ZONEEQUIPMENTOUTLETNODE,OFFICE_OPEN_2_Z16_AIRLOOP
   Return Air Path Node,Inlet Node,2,OFFICE_OPEN_2_Z16_RETURNAIR,OFFICE_OPEN_2_Z16_AIRLOOP
 Return Air Path,17,OFFICE_PRIVATE_2_Z17_RETURNAIRPATH,OFFICE_PRIVATE_2_Z17_AIRLOOP
   #Components on Return Air Path,1
   Return Air Path Component,1,AIRLOOPHVAC:ZONEMIXER,OFFICE_PRIVATE_2_Z17_RETURNAIRMIXER,OFFICE_PRIVATE_2_Z17_AIRLOOP
     #Inlet Nodes on Return Air Path Component,1
     Return Air Path Component Nodes,1,AIRLOOPHVAC:ZONEMIXER,OFFICE_PRIVATE_2_Z17_RETURNAIRMIXER,OFFICE_PRIVATE_2_Z17_RETURNAIR,OFFICE_PRIVATE_2_Z17_ZONEEQUIPMENTOUTLETNODE,OFFICE_PRIVATE_2_Z17_AIRLOOP
! <#Nodes on Return Air Path>,<Number of Nodes>
! <Return Air Path Node>,<Node Type>,<Node Count>,<Node Name>,<AirLoopHVAC Name>
   #Nodes on Return Air Path,2
   Return Air Path Node,Outlet Node,1,OFFICE_PRIVATE_2_Z17_ZONEEQUIPMENTOUTLETNODE,OFFICE_PRIVATE_2_Z17_AIRLOOP
   Return Air Path Node,Inlet Node,2,OFFICE_PRIVATE_2_Z17_RETURNAIR,OFFICE_PRIVATE_2_Z17_AIRLOOP
 Return Air Path,18,STORAGE_2_Z18_RETURNAIRPATH,STORAGE_2_Z18_AIRLOOP
   #Components on Return Air Path,1
   Return Air Path Component,1,AIRLOOPHVAC:ZONEMIXER,STORAGE_2_Z18_RETURNAIRMIXER,STORAGE_2_Z18_AIRLOOP
     #Inlet Nodes on Return Air Path Component,1
     Return Air Path Component Nodes,1,AIRLOOPHVAC:ZONEMIXER,STORAGE_2_Z18_RETURNAIRMIXER,STORAGE_2_Z18_RETURNAIR,STORAGE_2_Z18_ZONEEQUIPMENTOUTLETNODE,STORAGE_2_Z18_AIRLOOP
! <#Nodes on Return Air Path>,<Number of Nodes>
! <Return Air Path Node>,<Node Type>,<Node Count>,<Node Name>,<AirLoopHVAC Name>
   #Nodes on Return Air Path,2
   Return Air Path Node,Outlet Node,1,STORAGE_2_Z18_ZONEEQUIPMENTOUTLETNODE,STORAGE_2_Z18_AIRLOOP
   Return Air Path Node,Inlet Node,2,STORAGE_2_Z18_RETURNAIR,STORAGE_2_Z18_AIRLOOP
! ===============================================================
! #Outdoor Air Nodes,<Number of Outdoor Air Nodes>
 #Outdoor Air Nodes,0
! ===============================================================
! <#Component Sets>,<Number of Component Sets>
 #Component Sets,126
! <Component Set>,<Component Set Count>,<Parent Object Type>,<Parent Object Name>,<Component Type>,<Component Name>,<Inlet Node ID>,<Outlet Node ID>,<Description>
 Component Set,1,BRANCH,LOBBY_0_Z1_MAINBRANCH,COILSYSTEM:COOLING:DX,LOBBY_0_Z1_COOLINGCOIL,LOBBY_0_Z1_SUPPLYINLET,LOBBY_0_Z1_COOLC-HEATCNODE,Air Nodes
 Component Set,2,BRANCH,LOBBY_0_Z1_MAINBRANCH,COIL:HEATING:ELECTRIC,LOBBY_0_Z1_HEATINGCOIL,LOBBY_0_Z1_COOLC-HEATCNODE,LOBBY_0_Z1_HEATC-FANNODE,Air Nodes
 Component Set,3,BRANCH,LOBBY_0_Z1_MAINBRANCH,FAN:VARIABLEVOLUME,LOBBY_0_Z1_SUPPLYFAN,LOBBY_0_Z1_HEATC-FANNODE,LOBBY_0_Z1_SUPPLYEQUIPMENTOUTLETNODE,Air Nodes
 Component Set,4,BRANCH,CONFERENCE_0_Z2_MAINBRANCH,COILSYSTEM:COOLING:DX,CONFERENCE_0_Z2_COOLINGCOIL,CONFERENCE_0_Z2_SUPPLYINLET,CONFERENCE_0_Z2_COOLC-HEATCNODE,Air Nodes
 Component Set,5,BRANCH,CONFERENCE_0_Z2_MAINBRANCH,COIL:HEATING:ELECTRIC,CONFERENCE_0_Z2_HEATINGCOIL,CONFERENCE_0_Z2_COOLC-HEATCNODE,CONFERENCE_0_Z2_HEATC-FANNODE,Air Nodes
 Component Set,6,BRANCH,CONFERENCE_0_Z2_MAINBRANCH,FAN:VARIABLEVOLUME,CONFERENCE_0_Z2_SUPPLYFAN,CONFERENCE_0_Z2_HEATC-FANNODE,CONFERENCE_0_Z2_SUPPLYEQUIPMENTOUTLETNODE,Air Nodes
 Component Set,7,BRANCH,BREAK_ROOM_0_Z3_MAINBRANCH,COILSYSTEM:COOLING:DX,BREAK_ROOM_0_Z3_COOLINGCOIL,BREAK_ROOM_0_Z3_SUPPLYINLET,BREAK_ROOM_0_Z3_COOLC-HEATCNODE,Air Nodes
 Component Set,8,BRANCH,BREAK_ROOM_0_Z3_MAINBRANCH,COIL:HEATING:ELECTRIC,BREAK_ROOM_0_Z3_HEATINGCOIL,BREAK_ROOM_0_Z3_COOLC-HEATCNODE,BREAK_ROOM_0_Z3_HEATC-FANNODE,Air Nodes
 Component Set,9,BRANCH,BREAK_ROOM_0_Z3_MAINBRANCH,FAN:VARIABLEVOLUME,BREAK_ROOM_0_Z3_SUPPLYFAN,BREAK_ROOM_0_Z3_HEATC-FANNODE,BREAK_ROOM_0_Z3_SUPPLYEQUIPMENTOUTLETNODE,Air Nodes
 Component Set,10,BRANCH,MECHANICAL_0_Z4_MAINBRANCH,COILSYSTEM:COOLING:DX,MECHANICAL_0_Z4_COOLINGCOIL,MECHANICAL_0_Z4_SUPPLYINLET,MECHANICAL_0_Z4_COOLC-HEATCNODE,Air Nodes
 Component Set,11,BRANCH,MECHANICAL_0_Z4_MAINBRANCH,COIL:HEATING:ELECTRIC,MECHANICAL_0_Z4_HEATINGCOIL,MECHANICAL_0_Z4_COOLC-HEATCNODE,MECHANICAL_0_Z4_HEATC-FANNODE,Air Nodes
 Component Set,12,BRANCH,MECHANICAL_0_Z4_MAINBRANCH,FAN:VARIABLEVOLUME,MECHANICAL_0_Z4_SUPPLYFAN,MECHANICAL_0_Z4_HEATC-FANNODE,MECHANICAL_0_Z4_SUPPLYEQUIPMENTOUTLETNODE,Air Nodes
 Component Set,13,BRANCH,OFFICE_OPEN_0_Z5_MAINBRANCH,COILSYSTEM:COOLING:DX,OFFICE_OPEN_0_Z5_COOLINGCOIL,OFFICE_OPEN_0_Z5_SUPPLYINLET,OFFICE_OPEN_0_Z5_COOLC-HEATCNODE,Air Nodes
 Component Set,14,BRANCH,OFFICE_OPEN_0_Z5_MAINBRANCH,COIL:HEATING:ELECTRIC,OFFICE_OPEN_0_Z5_HEATINGCOIL,OFFICE_OPEN_0_Z5_COOLC-HEATCNODE,OFFICE_OPEN_0_Z5_HEATC-FANNODE,Air Nodes
 Component Set,15,BRANCH,OFFICE_OPEN_0_Z5_MAINBRANCH,FAN:VARIABLEVOLUME,OFFICE_OPEN_0_Z5_SUPPLYFAN,OFFICE_OPEN_0_Z5_HEATC-FANNODE,OFFICE_OPEN_0_Z5_SUPPLYEQUIPMENTOUTLETNODE,Air Nodes
 Component Set,16,BRANCH,OFFICE_PRIVATE_0_Z6_MAINBRANCH,COILSYSTEM:COOLING:DX,OFFICE_PRIVATE_0_Z6_COOLINGCOIL,OFFICE_PRIVATE_0_Z6_SUPPLYINLET,OFFICE_PRIVATE_0_Z6_COOLC-HEATCNODE,Air Nodes
 Component Set,17,BRANCH,OFFICE_PRIVATE_0_Z6_MAINBRANCH,COIL:HEATING:ELECTRIC,OFFICE_PRIVATE_0_Z6_HEATINGCOIL,OFFICE_PRIVATE_0_Z6_COOLC-HEATCNODE,OFFICE_PRIVATE_0_Z6_HEATC-FANNODE,Air Nodes
 Component Set,18,BRANCH,OFFICE_PRIVATE_0_Z6_MAINBRANCH,FAN:VARIABLEVOLUME,OFFICE_PRIVATE_0_Z6_SUPPLYFAN,OFFICE_PRIVATE_0_Z6_HEATC-FANNODE,OFFICE_PRIVATE_0_Z6_SUPPLYEQUIPMENTOUTLETNODE,Air Nodes
 Component Set,19,BRANCH,STORAGE_0_Z7_MAINBRANCH,COILSYSTEM:COOLING:DX,STORAGE_0_Z7_COOLINGCOIL,STORAGE_0_Z7_SUPPLYINLET,STORAGE_0_Z7_COOLC-HEATCNODE,Air Nodes
 Component Set,20,BRANCH,STORAGE_0_Z7_MAINBRANCH,COIL:HEATING:ELECTRIC,STORAGE_0_Z7_HEATINGCOIL,STORAGE_0_Z7_COOLC-HEATCNODE,STORAGE_0_Z7_HEATC-FANNODE,Air Nodes
 Component Set,21,BRANCH,STORAGE_0_Z7_MAINBRANCH,FAN:VARIABLEVOLUME,STORAGE_0_Z7_SUPPLYFAN,STORAGE_0_Z7_HEATC-FANNODE,STORAGE_0_Z7_SUPPLYEQUIPMENTOUTLETNODE,Air Nodes
 Component Set,22,BRANCH,CONFERENCE_1_Z8_MAINBRANCH,COILSYSTEM:COOLING:DX,CONFERENCE_1_Z8_COOLINGCOIL,CONFERENCE_1_Z8_SUPPLYINLET,CONFERENCE_1_Z8_COOLC-HEATCNODE,Air Nodes
 Component Set,23,BRANCH,CONFERENCE_1_Z8_MAINBRANCH,COIL:HEATING:ELECTRIC,CONFERENCE_1_Z8_HEATINGCOIL,CONFERENCE_1_Z8_COOLC-HEATCNODE,CONFERENCE_1_Z8_HEATC-FANNODE,Air Nodes
 Component Set,24,BRANCH,CONFERENCE_1_Z8_MAINBRANCH,FAN:VARIABLEVOLUME,CONFERENCE_1_Z8_SUPPLYFAN,CONFERENCE_1_Z8_HEATC-FANNODE,CONFERENCE_1_Z8_SUPPLYEQUIPMENTOUTLETNODE,Air Nodes
 Component Set,25,BRANCH,BREAK_ROOM_1_Z9_MAINBRANCH,COILSYSTEM:COOLING:DX,BREAK_ROOM_1_Z9_COOLINGCOIL,BREAK_ROOM_1_Z9_SUPPLYINLET,BREAK_ROOM_1_Z9_COOLC-HEATCNODE,Air Nodes
 Component Set,26,BRANCH,BREAK_ROOM_1_Z9_MAINBRANCH,COIL:HEATING:ELECTRIC,BREAK_ROOM_1_Z9_HEATINGCOIL,BREAK_ROOM_1_Z9_COOLC-HEATCNODE,BREAK_ROOM_1_Z9_HEATC-FANNODE,Air Nodes
 Component Set,27,BRANCH,BREAK_ROOM_1_Z9_MAINBRANCH,FAN:VARIABLEVOLUME,BREAK_ROOM_1_Z9_SUPPLYFAN,BREAK_ROOM_1_Z9_HEATC-FANNODE,BREAK_ROOM_1_Z9_SUPPLYEQUIPMENTOUTLETNODE,Air Nodes
 Component Set,28,BRANCH,MECHANICAL_1_Z10_MAINBRANCH,COILSYSTEM:COOLING:DX,MECHANICAL_1_Z10_COOLINGCOIL,MECHANICAL_1_Z10_SUPPLYINLET,MECHANICAL_1_Z10_COOLC-HEATCNODE,Air Nodes
 Component Set,29,BRANCH,MECHANICAL_1_Z10_MAINBRANCH,COIL:HEATING:ELECTRIC,MECHANICAL_1_Z10_HEATINGCOIL,MECHANICAL_1_Z10_COOLC-HEATCNODE,MECHANICAL_1_Z10_HEATC-FANNODE,Air Nodes
 Component Set,30,BRANCH,MECHANICAL_1_Z10_MAINBRANCH,FAN:VARIABLEVOLUME,MECHANICAL_1_Z10_SUPPLYFAN,MECHANICAL_1_Z10_HEATC-FANNODE,MECHANICAL_1_Z10_SUPPLYEQUIPMENTOUTLETNODE,Air Nodes
 Component Set,31,BRANCH,OFFICE_PRIVATE_1_Z11_MAINBRANCH,COILSYSTEM:COOLING:DX,OFFICE_PRIVATE_1_Z11_COOLINGCOIL,OFFICE_PRIVATE_1_Z11_SUPPLYINLET,OFFICE_PRIVATE_1_Z11_COOLC-HEATCNODE,Air Nodes
 Component Set,32,BRANCH,OFFICE_PRIVATE_1_Z11_MAINBRANCH,COIL:HEATING:ELECTRIC,OFFICE_PRIVATE_1_Z11_HEATINGCOIL,OFFICE_PRIVATE_1_Z11_COOLC-HEATCNODE,OFFICE_PRIVATE_1_Z11_HEATC-FANNODE,Air Nodes
 Component Set,33,BRANCH,OFFICE_PRIVATE_1_Z11_MAINBRANCH,FAN:VARIABLEVOLUME,OFFICE_PRIVATE_1_Z11_SUPPLYFAN,OFFICE_PRIVATE_1_Z11_HEATC-FANNODE,OFFICE_PRIVATE_1_Z11_SUPPLYEQUIPMENTOUTLETNODE,Air Nodes
 Component Set,34,BRANCH,STORAGE_1_Z12_MAINBRANCH,COILSYSTEM:COOLING:DX,STORAGE_1_Z12_COOLINGCOIL,STORAGE_1_Z12_SUPPLYINLET,STORAGE_1_Z12_COOLC-HEATCNODE,Air Nodes
 Component Set,35,BRANCH,STORAGE_1_Z12_MAINBRANCH,COIL:HEATING:ELECTRIC,STORAGE_1_Z12_HEATINGCOIL,STORAGE_1_Z12_COOLC-HEATCNODE,STORAGE_1_Z12_HEATC-FANNODE,Air Nodes
 Component Set,36,BRANCH,STORAGE_1_Z12_MAINBRANCH,FAN:VARIABLEVOLUME,STORAGE_1_Z12_SUPPLYFAN,STORAGE_1_Z12_HEATC-FANNODE,STORAGE_1_Z12_SUPPLYEQUIPMENTOUTLETNODE,Air Nodes
 Component Set,37,BRANCH,LOBBY_2_Z13_MAINBRANCH,COILSYSTEM:COOLING:DX,LOBBY_2_Z13_COOLINGCOIL,LOBBY_2_Z13_SUPPLYINLET,LOBBY_2_Z13_COOLC-HEATCNODE,Air Nodes
 Component Set,38,BRANCH,LOBBY_2_Z13_MAINBRANCH,COIL:HEATING:ELECTRIC,LOBBY_2_Z13_HEATINGCOIL,LOBBY_2_Z13_COOLC-HEATCNODE,LOBBY_2_Z13_HEATC-FANNODE,Air Nodes
 Component Set,39,BRANCH,LOBBY_2_Z13_MAINBRANCH,FAN:VARIABLEVOLUME,LOBBY_2_Z13_SUPPLYFAN,LOBBY_2_Z13_HEATC-FANNODE,LOBBY_2_Z13_SUPPLYEQUIPMENTOUTLETNODE,Air Nodes
 Component Set,40,BRANCH,CONFERENCE_2_Z14_MAINBRANCH,COILSYSTEM:COOLING:DX,CONFERENCE_2_Z14_COOLINGCOIL,CONFERENCE_2_Z14_SUPPLYINLET,CONFERENCE_2_Z14_COOLC-HEATCNODE,Air Nodes
 Component Set,41,BRANCH,CONFERENCE_2_Z14_MAINBRANCH,COIL:HEATING:ELECTRIC,CONFERENCE_2_Z14_HEATINGCOIL,CONFERENCE_2_Z14_COOLC-HEATCNODE,CONFERENCE_2_Z14_HEATC-FANNODE,Air Nodes
 Component Set,42,BRANCH,CONFERENCE_2_Z14_MAINBRANCH,FAN:VARIABLEVOLUME,CONFERENCE_2_Z14_SUPPLYFAN,CONFERENCE_2_Z14_HEATC-FANNODE,CONFERENCE_2_Z14_SUPPLYEQUIPMENTOUTLETNODE,Air Nodes
 Component Set,43,BRANCH,MECHANICAL_2_Z15_MAINBRANCH,COILSYSTEM:COOLING:DX,MECHANICAL_2_Z15_COOLINGCOIL,MECHANICAL_2_Z15_SUPPLYINLET,MECHANICAL_2_Z15_COOLC-HEATCNODE,Air Nodes
 Component Set,44,BRANCH,MECHANICAL_2_Z15_MAINBRANCH,COIL:HEATING:ELECTRIC,MECHANICAL_2_Z15_HEATINGCOIL,MECHANICAL_2_Z15_COOLC-HEATCNODE,MECHANICAL_2_Z15_HEATC-FANNODE,Air Nodes
 Component Set,45,BRANCH,MECHANICAL_2_Z15_MAINBRANCH,FAN:VARIABLEVOLUME,MECHANICAL_2_Z15_SUPPLYFAN,MECHANICAL_2_Z15_HEATC-FANNODE,MECHANICAL_2_Z15_SUPPLYEQUIPMENTOUTLETNODE,Air Nodes
 Component Set,46,BRANCH,OFFICE_OPEN_2_Z16_MAINBRANCH,COILSYSTEM:COOLING:DX,OFFICE_OPEN_2_Z16_COOLINGCOIL,OFFICE_OPEN_2_Z16_SUPPLYINLET,OFFICE_OPEN_2_Z16_COOLC-HEATCNODE,Air Nodes
 Component Set,47,BRANCH,OFFICE_OPEN_2_Z16_MAINBRANCH,COIL:HEATING:ELECTRIC,OFFICE_OPEN_2_Z16_HEATINGCOIL,OFFICE_OPEN_2_Z16_COOLC-HEATCNODE,OFFICE_OPEN_2_Z16_HEATC-FANNODE,Air Nodes
 Component Set,48,BRANCH,OFFICE_OPEN_2_Z16_MAINBRANCH,FAN:VARIABLEVOLUME,OFFICE_OPEN_2_Z16_SUPPLYFAN,OFFICE_OPEN_2_Z16_HEATC-FANNODE,OFFICE_OPEN_2_Z16_SUPPLYEQUIPMENTOUTLETNODE,Air Nodes
 Component Set,49,BRANCH,OFFICE_PRIVATE_2_Z17_MAINBRANCH,COILSYSTEM:COOLING:DX,OFFICE_PRIVATE_2_Z17_COOLINGCOIL,OFFICE_PRIVATE_2_Z17_SUPPLYINLET,OFFICE_PRIVATE_2_Z17_COOLC-HEATCNODE,Air Nodes
 Component Set,50,BRANCH,OFFICE_PRIVATE_2_Z17_MAINBRANCH,COIL:HEATING:ELECTRIC,OFFICE_PRIVATE_2_Z17_HEATINGCOIL,OFFICE_PRIVATE_2_Z17_COOLC-HEATCNODE,OFFICE_PRIVATE_2_Z17_HEATC-FANNODE,Air Nodes
 Component Set,51,BRANCH,OFFICE_PRIVATE_2_Z17_MAINBRANCH,FAN:VARIABLEVOLUME,OFFICE_PRIVATE_2_Z17_SUPPLYFAN,OFFICE_PRIVATE_2_Z17_HEATC-FANNODE,OFFICE_PRIVATE_2_Z17_SUPPLYEQUIPMENTOUTLETNODE,Air Nodes
 Component Set,52,BRANCH,STORAGE_2_Z18_MAINBRANCH,COILSYSTEM:COOLING:DX,STORAGE_2_Z18_COOLINGCOIL,STORAGE_2_Z18_SUPPLYINLET,STORAGE_2_Z18_COOLC-HEATCNODE,Air Nodes
 Component Set,53,BRANCH,STORAGE_2_Z18_MAINBRANCH,COIL:HEATING:ELECTRIC,STORAGE_2_Z18_HEATINGCOIL,STORAGE_2_Z18_COOLC-HEATCNODE,STORAGE_2_Z18_HEATC-FANNODE,Air Nodes
 Component Set,54,BRANCH,STORAGE_2_Z18_MAINBRANCH,FAN:VARIABLEVOLUME,STORAGE_2_Z18_SUPPLYFAN,STORAGE_2_Z18_HEATC-FANNODE,STORAGE_2_Z18_SUPPLYEQUIPMENTOUTLETNODE,Air Nodes
 Component Set,55,ZONEHVAC:AIRDISTRIBUTIONUNIT,LOBBY_0_Z1_ADU,AIRTERMINAL:SINGLEDUCT:VAV:REHEAT,LOBBY_0_Z1_VAVTERMINAL,LOBBY_0_Z1_TERMINALINLET,LOBBY_0_Z1_ADUOUTLET,Air Nodes
 Component Set,56,ZONEHVAC:AIRDISTRIBUTIONUNIT,CONFERENCE_0_Z2_ADU,AIRTERMINAL:SINGLEDUCT:VAV:REHEAT,CONFERENCE_0_Z2_VAVTERMINAL,CONFERENCE_0_Z2_TERMINALINLET,CONFERENCE_0_Z2_ADUOUTLET,Air Nodes
 Component Set,57,ZONEHVAC:AIRDISTRIBUTIONUNIT,BREAK_ROOM_0_Z3_ADU,AIRTERMINAL:SINGLEDUCT:VAV:REHEAT,BREAK_ROOM_0_Z3_VAVTERMINAL,BREAK_ROOM_0_Z3_TERMINALINLET,BREAK_ROOM_0_Z3_ADUOUTLET,Air Nodes
 Component Set,58,ZONEHVAC:AIRDISTRIBUTIONUNIT,MECHANICAL_0_Z4_ADU,AIRTERMINAL:SINGLEDUCT:VAV:REHEAT,MECHANICAL_0_Z4_VAVTERMINAL,MECHANICAL_0_Z4_TERMINALINLET,MECHANICAL_0_Z4_ADUOUTLET,Air Nodes
 Component Set,59,ZONEHVAC:AIRDISTRIBUTIONUNIT,OFFICE_OPEN_0_Z5_ADU,AIRTERMINAL:SINGLEDUCT:VAV:REHEAT,OFFICE_OPEN_0_Z5_VAVTERMINAL,OFFICE_OPEN_0_Z5_TERMINALINLET,OFFICE_OPEN_0_Z5_ADUOUTLET,Air Nodes
 Component Set,60,ZONEHVAC:AIRDISTRIBUTIONUNIT,OFFICE_PRIVATE_0_Z6_ADU,AIRTERMINAL:SINGLEDUCT:VAV:REHEAT,OFFICE_PRIVATE_0_Z6_VAVTERMINAL,OFFICE_PRIVATE_0_Z6_TERMINALINLET,OFFICE_PRIVATE_0_Z6_ADUOUTLET,Air Nodes
 Component Set,61,ZONEHVAC:AIRDISTRIBUTIONUNIT,STORAGE_0_Z7_ADU,AIRTERMINAL:SINGLEDUCT:VAV:REHEAT,STORAGE_0_Z7_VAVTERMINAL,STORAGE_0_Z7_TERMINALINLET,STORAGE_0_Z7_ADUOUTLET,Air Nodes
 Component Set,62,ZONEHVAC:AIRDISTRIBUTIONUNIT,CONFERENCE_1_Z8_ADU,AIRTERMINAL:SINGLEDUCT:VAV:REHEAT,CONFERENCE_1_Z8_VAVTERMINAL,CONFERENCE_1_Z8_TERMINALINLET,CONFERENCE_1_Z8_ADUOUTLET,Air Nodes
 Component Set,63,ZONEHVAC:AIRDISTRIBUTIONUNIT,BREAK_ROOM_1_Z9_ADU,AIRTERMINAL:SINGLEDUCT:VAV:REHEAT,BREAK_ROOM_1_Z9_VAVTERMINAL,BREAK_ROOM_1_Z9_TERMINALINLET,BREAK_ROOM_1_Z9_ADUOUTLET,Air Nodes
 Component Set,64,ZONEHVAC:AIRDISTRIBUTIONUNIT,MECHANICAL_1_Z10_ADU,AIRTERMINAL:SINGLEDUCT:VAV:REHEAT,MECHANICAL_1_Z10_VAVTERMINAL,MECHANICAL_1_Z10_TERMINALINLET,MECHANICAL_1_Z10_ADUOUTLET,Air Nodes
 Component Set,65,ZONEHVAC:AIRDISTRIBUTIONUNIT,OFFICE_PRIVATE_1_Z11_ADU,AIRTERMINAL:SINGLEDUCT:VAV:REHEAT,OFFICE_PRIVATE_1_Z11_VAVTERMINAL,OFFICE_PRIVATE_1_Z11_TERMINALINLET,OFFICE_PRIVATE_1_Z11_ADUOUTLET,Air Nodes
 Component Set,66,ZONEHVAC:AIRDISTRIBUTIONUNIT,STORAGE_1_Z12_ADU,AIRTERMINAL:SINGLEDUCT:VAV:REHEAT,STORAGE_1_Z12_VAVTERMINAL,STORAGE_1_Z12_TERMINALINLET,STORAGE_1_Z12_ADUOUTLET,Air Nodes
 Component Set,67,ZONEHVAC:AIRDISTRIBUTIONUNIT,LOBBY_2_Z13_ADU,AIRTERMINAL:SINGLEDUCT:VAV:REHEAT,LOBBY_2_Z13_VAVTERMINAL,LOBBY_2_Z13_TERMINALINLET,LOBBY_2_Z13_ADUOUTLET,Air Nodes
 Component Set,68,ZONEHVAC:AIRDISTRIBUTIONUNIT,CONFERENCE_2_Z14_ADU,AIRTERMINAL:SINGLEDUCT:VAV:REHEAT,CONFERENCE_2_Z14_VAVTERMINAL,CONFERENCE_2_Z14_TERMINALINLET,CONFERENCE_2_Z14_ADUOUTLET,Air Nodes
 Component Set,69,ZONEHVAC:AIRDISTRIBUTIONUNIT,MECHANICAL_2_Z15_ADU,AIRTERMINAL:SINGLEDUCT:VAV:REHEAT,MECHANICAL_2_Z15_VAVTERMINAL,MECHANICAL_2_Z15_TERMINALINLET,MECHANICAL_2_Z15_ADUOUTLET,Air Nodes
 Component Set,70,ZONEHVAC:AIRDISTRIBUTIONUNIT,OFFICE_OPEN_2_Z16_ADU,AIRTERMINAL:SINGLEDUCT:VAV:REHEAT,OFFICE_OPEN_2_Z16_VAVTERMINAL,OFFICE_OPEN_2_Z16_TERMINALINLET,OFFICE_OPEN_2_Z16_ADUOUTLET,Air Nodes
 Component Set,71,ZONEHVAC:AIRDISTRIBUTIONUNIT,OFFICE_PRIVATE_2_Z17_ADU,AIRTERMINAL:SINGLEDUCT:VAV:REHEAT,OFFICE_PRIVATE_2_Z17_VAVTERMINAL,OFFICE_PRIVATE_2_Z17_TERMINALINLET,OFFICE_PRIVATE_2_Z17_ADUOUTLET,Air Nodes
 Component Set,72,ZONEHVAC:AIRDISTRIBUTIONUNIT,STORAGE_2_Z18_ADU,AIRTERMINAL:SINGLEDUCT:VAV:REHEAT,STORAGE_2_Z18_VAVTERMINAL,STORAGE_2_Z18_TERMINALINLET,STORAGE_2_Z18_ADUOUTLET,Air Nodes
 Component Set,73,AIRTERMINAL:SINGLEDUCT:VAV:REHEAT,LOBBY_0_Z1_VAVTERMINAL,COIL:HEATING:ELECTRIC,LOBBY_0_Z1_REHEATCOIL,LOBBY_0_Z1_TERMINALOUTLET,LOBBY_0_Z1_ADUOUTLET,UNDEFINED
 Component Set,74,AIRTERMINAL:SINGLEDUCT:VAV:REHEAT,CONFERENCE_0_Z2_VAVTERMINAL,COIL:HEATING:ELECTRIC,CONFERENCE_0_Z2_REHEATCOIL,CONFERENCE_0_Z2_TERMINALOUTLET,CONFERENCE_0_Z2_ADUOUTLET,UNDEFINED
 Component Set,75,AIRTERMINAL:SINGLEDUCT:VAV:REHEAT,BREAK_ROOM_0_Z3_VAVTERMINAL,COIL:HEATING:ELECTRIC,BREAK_ROOM_0_Z3_REHEATCOIL,BREAK_ROOM_0_Z3_TERMINALOUTLET,BREAK_ROOM_0_Z3_ADUOUTLET,UNDEFINED
 Component Set,76,AIRTERMINAL:SINGLEDUCT:VAV:REHEAT,MECHANICAL_0_Z4_VAVTERMINAL,COIL:HEATING:ELECTRIC,MECHANICAL_0_Z4_REHEATCOIL,MECHANICAL_0_Z4_TERMINALOUTLET,MECHANICAL_0_Z4_ADUOUTLET,UNDEFINED
 Component Set,77,AIRTERMINAL:SINGLEDUCT:VAV:REHEAT,OFFICE_OPEN_0_Z5_VAVTERMINAL,COIL:HEATING:ELECTRIC,OFFICE_OPEN_0_Z5_REHEATCOIL,OFFICE_OPEN_0_Z5_TERMINALOUTLET,OFFICE_OPEN_0_Z5_ADUOUTLET,UNDEFINED
 Component Set,78,AIRTERMINAL:SINGLEDUCT:VAV:REHEAT,OFFICE_PRIVATE_0_Z6_VAVTERMINAL,COIL:HEATING:ELECTRIC,OFFICE_PRIVATE_0_Z6_REHEATCOIL,OFFICE_PRIVATE_0_Z6_TERMINALOUTLET,OFFICE_PRIVATE_0_Z6_ADUOUTLET,UNDEFINED
 Component Set,79,AIRTERMINAL:SINGLEDUCT:VAV:REHEAT,STORAGE_0_Z7_VAVTERMINAL,COIL:HEATING:ELECTRIC,STORAGE_0_Z7_REHEATCOIL,STORAGE_0_Z7_TERMINALOUTLET,STORAGE_0_Z7_ADUOUTLET,UNDEFINED
 Component Set,80,AIRTERMINAL:SINGLEDUCT:VAV:REHEAT,CONFERENCE_1_Z8_VAVTERMINAL,COIL:HEATING:ELECTRIC,CONFERENCE_1_Z8_REHEATCOIL,CONFERENCE_1_Z8_TERMINALOUTLET,CONFERENCE_1_Z8_ADUOUTLET,UNDEFINED
 Component Set,81,AIRTERMINAL:SINGLEDUCT:VAV:REHEAT,BREAK_ROOM_1_Z9_VAVTERMINAL,COIL:HEATING:ELECTRIC,BREAK_ROOM_1_Z9_REHEATCOIL,BREAK_ROOM_1_Z9_TERMINALOUTLET,BREAK_ROOM_1_Z9_ADUOUTLET,UNDEFINED
 Component Set,82,AIRTERMINAL:SINGLEDUCT:VAV:REHEAT,MECHANICAL_1_Z10_VAVTERMINAL,COIL:HEATING:ELECTRIC,MECHANICAL_1_Z10_REHEATCOIL,MECHANICAL_1_Z10_TERMINALOUTLET,MECHANICAL_1_Z10_ADUOUTLET,UNDEFINED
 Component Set,83,AIRTERMINAL:SINGLEDUCT:VAV:REHEAT,OFFICE_PRIVATE_1_Z11_VAVTERMINAL,COIL:HEATING:ELECTRIC,OFFICE_PRIVATE_1_Z11_REHEATCOIL,OFFICE_PRIVATE_1_Z11_TERMINALOUTLET,OFFICE_PRIVATE_1_Z11_ADUOUTLET,UNDEFINED
 Component Set,84,AIRTERMINAL:SINGLEDUCT:VAV:REHEAT,STORAGE_1_Z12_VAVTERMINAL,COIL:HEATING:ELECTRIC,STORAGE_1_Z12_REHEATCOIL,STORAGE_1_Z12_TERMINALOUTLET,STORAGE_1_Z12_ADUOUTLET,UNDEFINED
 Component Set,85,AIRTERMINAL:SINGLEDUCT:VAV:REHEAT,LOBBY_2_Z13_VAVTERMINAL,COIL:HEATING:ELECTRIC,LOBBY_2_Z13_REHEATCOIL,LOBBY_2_Z13_TERMINALOUTLET,LOBBY_2_Z13_ADUOUTLET,UNDEFINED
 Component Set,86,AIRTERMINAL:SINGLEDUCT:VAV:REHEAT,CONFERENCE_2_Z14_VAVTERMINAL,COIL:HEATING:ELECTRIC,CONFERENCE_2_Z14_REHEATCOIL,CONFERENCE_2_Z14_TERMINALOUTLET,CONFERENCE_2_Z14_ADUOUTLET,UNDEFINED
 Component Set,87,AIRTERMINAL:SINGLEDUCT:VAV:REHEAT,MECHANICAL_2_Z15_VAVTERMINAL,COIL:HEATING:ELECTRIC,MECHANICAL_2_Z15_REHEATCOIL,MECHANICAL_2_Z15_TERMINALOUTLET,MECHANICAL_2_Z15_ADUOUTLET,UNDEFINED
 Component Set,88,AIRTERMINAL:SINGLEDUCT:VAV:REHEAT,OFFICE_OPEN_2_Z16_VAVTERMINAL,COIL:HEATING:ELECTRIC,OFFICE_OPEN_2_Z16_REHEATCOIL,OFFICE_OPEN_2_Z16_TERMINALOUTLET,OFFICE_OPEN_2_Z16_ADUOUTLET,UNDEFINED
 Component Set,89,AIRTERMINAL:SINGLEDUCT:VAV:REHEAT,OFFICE_PRIVATE_2_Z17_VAVTERMINAL,COIL:HEATING:ELECTRIC,OFFICE_PRIVATE_2_Z17_REHEATCOIL,OFFICE_PRIVATE_2_Z17_TERMINALOUTLET,OFFICE_PRIVATE_2_Z17_ADUOUTLET,UNDEFINED
 Component Set,90,AIRTERMINAL:SINGLEDUCT:VAV:REHEAT,STORAGE_2_Z18_VAVTERMINAL,COIL:HEATING:ELECTRIC,STORAGE_2_Z18_REHEATCOIL,STORAGE_2_Z18_TERMINALOUTLET,STORAGE_2_Z18_ADUOUTLET,UNDEFINED
 Component Set,91,UNDEFINED,UNDEFINED,COIL:HEATING:ELECTRIC,LOBBY_0_Z1_REHEATCOIL,LOBBY_0_Z1_REHEATINLET,LOBBY_0_Z1_ADUOUTLET,Air Nodes
 Component Set,92,UNDEFINED,UNDEFINED,COIL:HEATING:ELECTRIC,CONFERENCE_0_Z2_REHEATCOIL,CONFERENCE_0_Z2_REHEATINLET,CONFERENCE_0_Z2_ADUOUTLET,Air Nodes
 Component Set,93,UNDEFINED,UNDEFINED,COIL:HEATING:ELECTRIC,BREAK_ROOM_0_Z3_REHEATCOIL,BREAK_ROOM_0_Z3_REHEATINLET,BREAK_ROOM_0_Z3_ADUOUTLET,Air Nodes
 Component Set,94,UNDEFINED,UNDEFINED,COIL:HEATING:ELECTRIC,MECHANICAL_0_Z4_REHEATCOIL,MECHANICAL_0_Z4_REHEATINLET,MECHANICAL_0_Z4_ADUOUTLET,Air Nodes
 Component Set,95,UNDEFINED,UNDEFINED,COIL:HEATING:ELECTRIC,OFFICE_OPEN_0_Z5_REHEATCOIL,OFFICE_OPEN_0_Z5_REHEATINLET,OFFICE_OPEN_0_Z5_ADUOUTLET,Air Nodes
 Component Set,96,UNDEFINED,UNDEFINED,COIL:HEATING:ELECTRIC,OFFICE_PRIVATE_0_Z6_REHEATCOIL,OFFICE_PRIVATE_0_Z6_REHEATINLET,OFFICE_PRIVATE_0_Z6_ADUOUTLET,Air Nodes
 Component Set,97,UNDEFINED,UNDEFINED,COIL:HEATING:ELECTRIC,STORAGE_0_Z7_REHEATCOIL,STORAGE_0_Z7_REHEATINLET,STORAGE_0_Z7_ADUOUTLET,Air Nodes
 Component Set,98,UNDEFINED,UNDEFINED,COIL:HEATING:ELECTRIC,CONFERENCE_1_Z8_REHEATCOIL,CONFERENCE_1_Z8_REHEATINLET,CONFERENCE_1_Z8_ADUOUTLET,Air Nodes
 Component Set,99,UNDEFINED,UNDEFINED,COIL:HEATING:ELECTRIC,BREAK_ROOM_1_Z9_REHEATCOIL,BREAK_ROOM_1_Z9_REHEATINLET,BREAK_ROOM_1_Z9_ADUOUTLET,Air Nodes
 Component Set,100,UNDEFINED,UNDEFINED,COIL:HEATING:ELECTRIC,MECHANICAL_1_Z10_REHEATCOIL,MECHANICAL_1_Z10_REHEATINLET,MECHANICAL_1_Z10_ADUOUTLET,Air Nodes
 Component Set,101,UNDEFINED,UNDEFINED,COIL:HEATING:ELECTRIC,OFFICE_PRIVATE_1_Z11_REHEATCOIL,OFFICE_PRIVATE_1_Z11_REHEATINLET,OFFICE_PRIVATE_1_Z11_ADUOUTLET,Air Nodes
 Component Set,102,UNDEFINED,UNDEFINED,COIL:HEATING:ELECTRIC,STORAGE_1_Z12_REHEATCOIL,STORAGE_1_Z12_REHEATINLET,STORAGE_1_Z12_ADUOUTLET,Air Nodes
 Component Set,103,UNDEFINED,UNDEFINED,COIL:HEATING:ELECTRIC,LOBBY_2_Z13_REHEATCOIL,LOBBY_2_Z13_REHEATINLET,LOBBY_2_Z13_ADUOUTLET,Air Nodes
 Component Set,104,UNDEFINED,UNDEFINED,COIL:HEATING:ELECTRIC,CONFERENCE_2_Z14_REHEATCOIL,CONFERENCE_2_Z14_REHEATINLET,CONFERENCE_2_Z14_ADUOUTLET,Air Nodes
 Component Set,105,UNDEFINED,UNDEFINED,COIL:HEATING:ELECTRIC,MECHANICAL_2_Z15_REHEATCOIL,MECHANICAL_2_Z15_REHEATINLET,MECHANICAL_2_Z15_ADUOUTLET,Air Nodes
 Component Set,106,UNDEFINED,UNDEFINED,COIL:HEATING:ELECTRIC,OFFICE_OPEN_2_Z16_REHEATCOIL,OFFICE_OPEN_2_Z16_REHEATINLET,OFFICE_OPEN_2_Z16_ADUOUTLET,Air Nodes
 Component Set,107,UNDEFINED,UNDEFINED,COIL:HEATING:ELECTRIC,OFFICE_PRIVATE_2_Z17_REHEATCOIL,OFFICE_PRIVATE_2_Z17_REHEATINLET,OFFICE_PRIVATE_2_Z17_ADUOUTLET,Air Nodes
 Component Set,108,UNDEFINED,UNDEFINED,COIL:HEATING:ELECTRIC,STORAGE_2_Z18_REHEATCOIL,STORAGE_2_Z18_REHEATINLET,STORAGE_2_Z18_ADUOUTLET,Air Nodes
 Component Set,109,COILSYSTEM:COOLING:DX,LOBBY_0_Z1_COOLINGCOIL,COIL:COOLING:DX:SINGLESPEED,LOBBY_0_Z1_COOLINGCOILDX,LOBBY_0_Z1_SUPPLYINLET,LOBBY_0_Z1_COOLC-HEATCNODE,Air Nodes
 Component Set,110,COILSYSTEM:COOLING:DX,CONFERENCE_0_Z2_COOLINGCOIL,COIL:COOLING:DX:SINGLESPEED,CONFERENCE_0_Z2_COOLINGCOILDX,CONFERENCE_0_Z2_SUPPLYINLET,CONFERENCE_0_Z2_COOLC-HEATCNODE,Air Nodes
 Component Set,111,COILSYSTEM:COOLING:DX,BREAK_ROOM_0_Z3_COOLINGCOIL,COIL:COOLING:DX:SINGLESPEED,BREAK_ROOM_0_Z3_COOLINGCOILDX,BREAK_ROOM_0_Z3_SUPPLYINLET,BREAK_ROOM_0_Z3_COOLC-HEATCNODE,Air Nodes
 Component Set,112,COILSYSTEM:COOLING:DX,MECHANICAL_0_Z4_COOLINGCOIL,COIL:COOLING:DX:SINGLESPEED,MECHANICAL_0_Z4_COOLINGCOILDX,MECHANICAL_0_Z4_SUPPLYINLET,MECHANICAL_0_Z4_COOLC-HEATCNODE,Air Nodes
 Component Set,113,COILSYSTEM:COOLING:DX,OFFICE_OPEN_0_Z5_COOLINGCOIL,COIL:COOLING:DX:SINGLESPEED,OFFICE_OPEN_0_Z5_COOLINGCOILDX,OFFICE_OPEN_0_Z5_SUPPLYINLET,OFFICE_OPEN_0_Z5_COOLC-HEATCNODE,Air Nodes
 Component Set,114,COILSYSTEM:COOLING:DX,OFFICE_PRIVATE_0_Z6_COOLINGCOIL,COIL:COOLING:DX:SINGLESPEED,OFFICE_PRIVATE_0_Z6_COOLINGCOILDX,OFFICE_PRIVATE_0_Z6_SUPPLYINLET,OFFICE_PRIVATE_0_Z6_COOLC-HEATCNODE,Air Nodes
 Component Set,115,COILSYSTEM:COOLING:DX,STORAGE_0_Z7_COOLINGCOIL,COIL:COOLING:DX:SINGLESPEED,STORAGE_0_Z7_COOLINGCOILDX,STORAGE_0_Z7_SUPPLYINLET,STORAGE_0_Z7_COOLC-HEATCNODE,Air Nodes
 Component Set,116,COILSYSTEM:COOLING:DX,CONFERENCE_1_Z8_COOLINGCOIL,COIL:COOLING:DX:SINGLESPEED,CONFERENCE_1_Z8_COOLINGCOILDX,CONFERENCE_1_Z8_SUPPLYINLET,CONFERENCE_1_Z8_COOLC-HEATCNODE,Air Nodes
 Component Set,117,COILSYSTEM:COOLING:DX,BREAK_ROOM_1_Z9_COOLINGCOIL,COIL:COOLING:DX:SINGLESPEED,BREAK_ROOM_1_Z9_COOLINGCOILDX,BREAK_ROOM_1_Z9_SUPPLYINLET,BREAK_ROOM_1_Z9_COOLC-HEATCNODE,Air Nodes
 Component Set,118,COILSYSTEM:COOLING:DX,MECHANICAL_1_Z10_COOLINGCOIL,COIL:COOLING:DX:SINGLESPEED,MECHANICAL_1_Z10_COOLINGCOILDX,MECHANICAL_1_Z10_SUPPLYINLET,MECHANICAL_1_Z10_COOLC-HEATCNODE,Air Nodes
 Component Set,119,COILSYSTEM:COOLING:DX,OFFICE_PRIVATE_1_Z11_COOLINGCOIL,COIL:COOLING:DX:SINGLESPEED,OFFICE_PRIVATE_1_Z11_COOLINGCOILDX,OFFICE_PRIVATE_1_Z11_SUPPLYINLET,OFFICE_PRIVATE_1_Z11_COOLC-HEATCNODE,Air Nodes
 Component Set,120,COILSYSTEM:COOLING:DX,STORAGE_1_Z12_COOLINGCOIL,COIL:COOLING:DX:SINGLESPEED,STORAGE_1_Z12_COOLINGCOILDX,STORAGE_1_Z12_SUPPLYINLET,STORAGE_1_Z12_COOLC-HEATCNODE,Air Nodes
 Component Set,121,COILSYSTEM:COOLING:DX,LOBBY_2_Z13_COOLINGCOIL,COIL:COOLING:DX:SINGLESPEED,LOBBY_2_Z13_COOLINGCOILDX,LOBBY_2_Z13_SUPPLYINLET,LOBBY_2_Z13_COOLC-HEATCNODE,Air Nodes
 Component Set,122,COILSYSTEM:COOLING:DX,CONFERENCE_2_Z14_COOLINGCOIL,COIL:COOLING:DX:SINGLESPEED,CONFERENCE_2_Z14_COOLINGCOILDX,CONFERENCE_2_Z14_SUPPLYINLET,CONFERENCE_2_Z14_COOLC-HEATCNODE,Air Nodes
 Component Set,123,COILSYSTEM:COOLING:DX,MECHANICAL_2_Z15_COOLINGCOIL,COIL:COOLING:DX:SINGLESPEED,MECHANICAL_2_Z15_COOLINGCOILDX,MECHANICAL_2_Z15_SUPPLYINLET,MECHANICAL_2_Z15_COOLC-HEATCNODE,Air Nodes
 Component Set,124,COILSYSTEM:COOLING:DX,OFFICE_OPEN_2_Z16_COOLINGCOIL,COIL:COOLING:DX:SINGLESPEED,OFFICE_OPEN_2_Z16_COOLINGCOILDX,OFFICE_OPEN_2_Z16_SUPPLYINLET,OFFICE_OPEN_2_Z16_COOLC-HEATCNODE,Air Nodes
 Component Set,125,COILSYSTEM:COOLING:DX,OFFICE_PRIVATE_2_Z17_COOLINGCOIL,COIL:COOLING:DX:SINGLESPEED,OFFICE_PRIVATE_2_Z17_COOLINGCOILDX,OFFICE_PRIVATE_2_Z17_SUPPLYINLET,OFFICE_PRIVATE_2_Z17_COOLC-HEATCNODE,Air Nodes
 Component Set,126,COILSYSTEM:COOLING:DX,STORAGE_2_Z18_COOLINGCOIL,COIL:COOLING:DX:SINGLESPEED,STORAGE_2_Z18_COOLINGCOILDX,STORAGE_2_Z18_SUPPLYINLET,STORAGE_2_Z18_COOLC-HEATCNODE,Air Nodes
! ===============================================================
! <# Plant Loops>,<Number of Plant Loops>
 #Plant Loops,0
! <Plant Loop>,<Plant Loop Name>,<Loop Type>,<Inlet Node Name>,<Outlet Node Name>,<Branch List>,<Connector List>
! <Plant Loop Connector>,<Connector Type>,<Connector Name>,<Loop Name>,<Loop Type>,<Number of Inlets/Outlets>
! <Plant Loop Connector Branches>,<Connector Node Count>,<Connector Type>,<Connector Name>,<Inlet Branch>,<Outlet Branch>,<Loop Name>,<Loop Type>
! <Plant Loop Connector Nodes>,<Connector Node Count>,<Connector Type>,<Connector Name>,<Inlet Node>,<Outlet Node>,<Loop Name>,<Loop Type>
! <Plant Loop Supply Connection>,<Plant Loop Name>,<Supply Side Outlet Node Name>,<Demand Side Inlet Node Name>
! <Plant Loop Return Connection>,<Plant Loop Name>,<Demand Side Outlet Node Name>,<Supply Side Inlet Node Name>
! ===============================================================
! <# Condenser Loops>,<Number of Condenser Loops>
 #Condenser Loops,0
! <Condenser Loop>,<Condenser Loop Name>,<Loop Type>,<Inlet Node Name>,<Outlet Node Name>,<Branch List>,<Connector List>
! <Condenser Loop Connector>,<Connector Type>,<Connector Name>,<Loop Name>,<Loop Type>,<Number of Inlets/Outlets>
! <Condenser Loop Connector Branches>,<Connector Node Count>,<Connector Type>,<Connector Name>,<Inlet Branch>,<Outlet Branch>,<Loop Name>,<Loop Type>
! <Condenser Loop Connector Nodes>,<Connector Node Count>,<Connector Type>,<Connector Name>,<Inlet Node>,<Outlet Node>,<Loop Name>,<Loop Type>
! <Condenser Loop Supply Connection>,<Condenser Loop Name>,<Supply Side Outlet Node Name>,<Demand Side Inlet Node Name>
! <Condenser Loop Return Connection>,<Condenser Loop Name>,<Demand Side Outlet Node Name>,<Supply Side Inlet Node Name>
! ===============================================================
! <# Controlled Zones>,<Number of Controlled Zones>
 #Controlled Zones,18
! <Controlled Zone>,<Controlled Zone Name>,<Equip List Name>,<Control List Name>,<Zone Node Name>,<# Inlet Nodes>,<# Exhaust Nodes>,<# Return Nodes>
! <Controlled Zone Inlet>,<Inlet Node Count>,<Controlled Zone Name>,<Supply Air Inlet Node Name>,<SD Sys:Cooling/Heating [DD:Cooling] Inlet Node Name>,<DD Sys:Heating Inlet Node Name>
! <Controlled Zone Exhaust>,<Exhaust Node Count>,<Controlled Zone Name>,<Exhaust Air Node Name>
 Controlled Zone,LOBBY_0,LOBBY_0_Z1 EQUIPMENT,,LOBBY_0 AIR NODE,1,0,0
   Controlled Zone Inlet,1,LOBBY_0,LOBBY_0_Z1_ADUOUTLET,LOBBY_0_Z1_TERMINALINLET,N/A
 Controlled Zone,CONFERENCE_0,CONFERENCE_0_Z2 EQUIPMENT,,CONFERENCE_0 AIR NODE,1,0,0
   Controlled Zone Inlet,1,CONFERENCE_0,CONFERENCE_0_Z2_ADUOUTLET,CONFERENCE_0_Z2_TERMINALINLET,N/A
 Controlled Zone,BREAK_ROOM_0,BREAK_ROOM_0_Z3 EQUIPMENT,,BREAK_ROOM_0 AIR NODE,1,0,0
   Controlled Zone Inlet,1,BREAK_ROOM_0,BREAK_ROOM_0_Z3_ADUOUTLET,BREAK_ROOM_0_Z3_TERMINALINLET,N/A
 Controlled Zone,MECHANICAL_0,MECHANICAL_0_Z4 EQUIPMENT,,MECHANICAL_0 AIR NODE,1,0,0
   Controlled Zone Inlet,1,MECHANICAL_0,MECHANICAL_0_Z4_ADUOUTLET,MECHANICAL_0_Z4_TERMINALINLET,N/A
 Controlled Zone,OFFICE_OPEN_0,OFFICE_OPEN_0_Z5 EQUIPMENT,,OFFICE_OPEN_0 AIR NODE,1,0,0
   Controlled Zone Inlet,1,OFFICE_OPEN_0,OFFICE_OPEN_0_Z5_ADUOUTLET,OFFICE_OPEN_0_Z5_TERMINALINLET,N/A
 Controlled Zone,OFFICE_PRIVATE_0,OFFICE_PRIVATE_0_Z6 EQUIPMENT,,OFFICE_PRIVATE_0 AIR NODE,1,0,0
   Controlled Zone Inlet,1,OFFICE_PRIVATE_0,OFFICE_PRIVATE_0_Z6_ADUOUTLET,OFFICE_PRIVATE_0_Z6_TERMINALINLET,N/A
 Controlled Zone,STORAGE_0,STORAGE_0_Z7 EQUIPMENT,,STORAGE_0 AIR NODE,1,0,0
   Controlled Zone Inlet,1,STORAGE_0,STORAGE_0_Z7_ADUOUTLET,STORAGE_0_Z7_TERMINALINLET,N/A
 Controlled Zone,CONFERENCE_1,CONFERENCE_1_Z8 EQUIPMENT,,CONFERENCE_1 AIR NODE,1,0,0
   Controlled Zone Inlet,1,CONFERENCE_1,CONFERENCE_1_Z8_ADUOUTLET,CONFERENCE_1_Z8_TERMINALINLET,N/A
 Controlled Zone,BREAK_ROOM_1,BREAK_ROOM_1_Z9 EQUIPMENT,,BREAK_ROOM_1 AIR NODE,1,0,0
   Controlled Zone Inlet,1,BREAK_ROOM_1,BREAK_ROOM_1_Z9_ADUOUTLET,BREAK_ROOM_1_Z9_TERMINALINLET,N/A
 Controlled Zone,MECHANICAL_1,MECHANICAL_1_Z10 EQUIPMENT,,MECHANICAL_1 AIR NODE,1,0,0
   Controlled Zone Inlet,1,MECHANICAL_1,MECHANICAL_1_Z10_ADUOUTLET,MECHANICAL_1_Z10_TERMINALINLET,N/A
 Controlled Zone,OFFICE_PRIVATE_1,OFFICE_PRIVATE_1_Z11 EQUIPMENT,,OFFICE_PRIVATE_1 AIR NODE,1,0,0
   Controlled Zone Inlet,1,OFFICE_PRIVATE_1,OFFICE_PRIVATE_1_Z11_ADUOUTLET,OFFICE_PRIVATE_1_Z11_TERMINALINLET,N/A
 Controlled Zone,STORAGE_1,STORAGE_1_Z12 EQUIPMENT,,STORAGE_1 AIR NODE,1,0,0
   Controlled Zone Inlet,1,STORAGE_1,STORAGE_1_Z12_ADUOUTLET,STORAGE_1_Z12_TERMINALINLET,N/A
 Controlled Zone,LOBBY_2,LOBBY_2_Z13 EQUIPMENT,,LOBBY_2 AIR NODE,1,0,0
   Controlled Zone Inlet,1,LOBBY_2,LOBBY_2_Z13_ADUOUTLET,LOBBY_2_Z13_TERMINALINLET,N/A
 Controlled Zone,CONFERENCE_2,CONFERENCE_2_Z14 EQUIPMENT,,CONFERENCE_2 AIR NODE,1,0,0
   Controlled Zone Inlet,1,CONFERENCE_2,CONFERENCE_2_Z14_ADUOUTLET,CONFERENCE_2_Z14_TERMINALINLET,N/A
 Controlled Zone,MECHANICAL_2,MECHANICAL_2_Z15 EQUIPMENT,,MECHANICAL_2 AIR NODE,1,0,0
   Controlled Zone Inlet,1,MECHANICAL_2,MECHANICAL_2_Z15_ADUOUTLET,MECHANICAL_2_Z15_TERMINALINLET,N/A
 Controlled Zone,OFFICE_OPEN_2,OFFICE_OPEN_2_Z16 EQUIPMENT,,OFFICE_OPEN_2 AIR NODE,1,0,0
   Controlled Zone Inlet,1,OFFICE_OPEN_2,OFFICE_OPEN_2_Z16_ADUOUTLET,OFFICE_OPEN_2_Z16_TERMINALINLET,N/A
 Controlled Zone,OFFICE_PRIVATE_2,OFFICE_PRIVATE_2_Z17 EQUIPMENT,,OFFICE_PRIVATE_2 AIR NODE,1,0,0
   Controlled Zone Inlet,1,OFFICE_PRIVATE_2,OFFICE_PRIVATE_2_Z17_ADUOUTLET,OFFICE_PRIVATE_2_Z17_TERMINALINLET,N/A
 Controlled Zone,STORAGE_2,STORAGE_2_Z18 EQUIPMENT,,STORAGE_2 AIR NODE,1,0,0
   Controlled Zone Inlet,1,STORAGE_2,STORAGE_2_Z18_ADUOUTLET,STORAGE_2_Z18_TERMINALINLET,N/A
! ===============================================================
! <#Zone Equipment Lists>,<Number of Zone Equipment Lists>
 #Zone Equipment Lists,18
! <Zone Equipment List>,<Zone Equipment List Count>,<Zone Equipment List Name>,<Zone Name>,<Number of Components>
! <Zone Equipment Component>,<Component Count>,<Component Type>,<Component Name>,<Zone Name>,<Heating Priority>,<Cooling Priority>
 Zone Equipment List,1,LOBBY_0_Z1 EQUIPMENT,LOBBY_0,1
   Zone Equipment Component,1,ZONEHVAC:AIRDISTRIBUTIONUNIT,LOBBY_0_Z1_ADU,LOBBY_0,1,1
 Zone Equipment List,2,CONFERENCE_0_Z2 EQUIPMENT,CONFERENCE_0,1
   Zone Equipment Component,1,ZONEHVAC:AIRDISTRIBUTIONUNIT,CONFERENCE_0_Z2_ADU,CONFERENCE_0,1,1
 Zone Equipment List,3,BREAK_ROOM_0_Z3 EQUIPMENT,BREAK_ROOM_0,1
   Zone Equipment Component,1,ZONEHVAC:AIRDISTRIBUTIONUNIT,BREAK_ROOM_0_Z3_ADU,BREAK_ROOM_0,1,1
 Zone Equipment List,4,MECHANICAL_0_Z4 EQUIPMENT,MECHANICAL_0,1
   Zone Equipment Component,1,ZONEHVAC:AIRDISTRIBUTIONUNIT,MECHANICAL_0_Z4_ADU,MECHANICAL_0,1,1
 Zone Equipment List,5,OFFICE_OPEN_0_Z5 EQUIPMENT,OFFICE_OPEN_0,1
   Zone Equipment Component,1,ZONEHVAC:AIRDISTRIBUTIONUNIT,OFFICE_OPEN_0_Z5_ADU,OFFICE_OPEN_0,1,1
 Zone Equipment List,6,OFFICE_PRIVATE_0_Z6 EQUIPMENT,OFFICE_PRIVATE_0,1
   Zone Equipment Component,1,ZONEHVAC:AIRDISTRIBUTIONUNIT,OFFICE_PRIVATE_0_Z6_ADU,OFFICE_PRIVATE_0,1,1
 Zone Equipment List,7,STORAGE_0_Z7 EQUIPMENT,STORAGE_0,1
   Zone Equipment Component,1,ZONEHVAC:AIRDISTRIBUTIONUNIT,STORAGE_0_Z7_ADU,STORAGE_0,1,1
 Zone Equipment List,8,CONFERENCE_1_Z8 EQUIPMENT,CONFERENCE_1,1
   Zone Equipment Component,1,ZONEHVAC:AIRDISTRIBUTIONUNIT,CONFERENCE_1_Z8_ADU,CONFERENCE_1,1,1
 Zone Equipment List,9,BREAK_ROOM_1_Z9 EQUIPMENT,BREAK_ROOM_1,1
   Zone Equipment Component,1,ZONEHVAC:AIRDISTRIBUTIONUNIT,BREAK_ROOM_1_Z9_ADU,BREAK_ROOM_1,1,1
 Zone Equipment List,10,MECHANICAL_1_Z10 EQUIPMENT,MECHANICAL_1,1
   Zone Equipment Component,1,ZONEHVAC:AIRDISTRIBUTIONUNIT,MECHANICAL_1_Z10_ADU,MECHANICAL_1,1,1
 Zone Equipment List,11,OFFICE_PRIVATE_1_Z11 EQUIPMENT,OFFICE_PRIVATE_1,1
   Zone Equipment Component,1,ZONEHVAC:AIRDISTRIBUTIONUNIT,OFFICE_PRIVATE_1_Z11_ADU,OFFICE_PRIVATE_1,1,1
 Zone Equipment List,12,STORAGE_1_Z12 EQUIPMENT,STORAGE_1,1
[...]
 Non-Parent Node Connection,STORAGE_0_Z7_HEATC-FANNODE,COIL:HEATING:ELECTRIC,STORAGE_0_Z7_HEATINGCOIL,Sensor,1
 Non-Parent Node Connection,STORAGE_0_Z7_REHEATINLET,COIL:HEATING:ELECTRIC,STORAGE_0_Z7_REHEATCOIL,Inlet,1
 Non-Parent Node Connection,STORAGE_0_Z7_ADUOUTLET,COIL:HEATING:ELECTRIC,STORAGE_0_Z7_REHEATCOIL,Outlet,1
 Non-Parent Node Connection,CONFERENCE_1_Z8_COOLC-HEATCNODE,COIL:HEATING:ELECTRIC,CONFERENCE_1_Z8_HEATINGCOIL,Inlet,1
 Non-Parent Node Connection,CONFERENCE_1_Z8_HEATC-FANNODE,COIL:HEATING:ELECTRIC,CONFERENCE_1_Z8_HEATINGCOIL,Outlet,1
 Non-Parent Node Connection,CONFERENCE_1_Z8_HEATC-FANNODE,COIL:HEATING:ELECTRIC,CONFERENCE_1_Z8_HEATINGCOIL,Sensor,1
 Non-Parent Node Connection,CONFERENCE_1_Z8_REHEATINLET,COIL:HEATING:ELECTRIC,CONFERENCE_1_Z8_REHEATCOIL,Inlet,1
 Non-Parent Node Connection,CONFERENCE_1_Z8_ADUOUTLET,COIL:HEATING:ELECTRIC,CONFERENCE_1_Z8_REHEATCOIL,Outlet,1
 Non-Parent Node Connection,BREAK_ROOM_1_Z9_COOLC-HEATCNODE,COIL:HEATING:ELECTRIC,BREAK_ROOM_1_Z9_HEATINGCOIL,Inlet,1
 Non-Parent Node Connection,BREAK_ROOM_1_Z9_HEATC-FANNODE,COIL:HEATING:ELECTRIC,BREAK_ROOM_1_Z9_HEATINGCOIL,Outlet,1
 Non-Parent Node Connection,BREAK_ROOM_1_Z9_HEATC-FANNODE,COIL:HEATING:ELECTRIC,BREAK_ROOM_1_Z9_HEATINGCOIL,Sensor,1
 Non-Parent Node Connection,BREAK_ROOM_1_Z9_REHEATINLET,COIL:HEATING:ELECTRIC,BREAK_ROOM_1_Z9_REHEATCOIL,Inlet,1
 Non-Parent Node Connection,BREAK_ROOM_1_Z9_ADUOUTLET,COIL:HEATING:ELECTRIC,BREAK_ROOM_1_Z9_REHEATCOIL,Outlet,1
 Non-Parent Node Connection,MECHANICAL_1_Z10_COOLC-HEATCNODE,COIL:HEATING:ELECTRIC,MECHANICAL_1_Z10_HEATINGCOIL,Inlet,1
 Non-Parent Node Connection,MECHANICAL_1_Z10_HEATC-FANNODE,COIL:HEATING:ELECTRIC,MECHANICAL_1_Z10_HEATINGCOIL,Outlet,1
 Non-Parent Node Connection,MECHANICAL_1_Z10_HEATC-FANNODE,COIL:HEATING:ELECTRIC,MECHANICAL_1_Z10_HEATINGCOIL,Sensor,1
 Non-Parent Node Connection,MECHANICAL_1_Z10_REHEATINLET,COIL:HEATING:ELECTRIC,MECHANICAL_1_Z10_REHEATCOIL,Inlet,1
 Non-Parent Node Connection,MECHANICAL_1_Z10_ADUOUTLET,COIL:HEATING:ELECTRIC,MECHANICAL_1_Z10_REHEATCOIL,Outlet,1
 Non-Parent Node Connection,OFFICE_PRIVATE_1_Z11_COOLC-HEATCNODE,COIL:HEATING:ELECTRIC,OFFICE_PRIVATE_1_Z11_HEATINGCOIL,Inlet,1
 Non-Parent Node Connection,OFFICE_PRIVATE_1_Z11_HEATC-FANNODE,COIL:HEATING:ELECTRIC,OFFICE_PRIVATE_1_Z11_HEATINGCOIL,Outlet,1
 Non-Parent Node Connection,OFFICE_PRIVATE_1_Z11_HEATC-FANNODE,COIL:HEATING:ELECTRIC,OFFICE_PRIVATE_1_Z11_HEATINGCOIL,Sensor,1
 Non-Parent Node Connection,OFFICE_PRIVATE_1_Z11_REHEATINLET,COIL:HEATING:ELECTRIC,OFFICE_PRIVATE_1_Z11_REHEATCOIL,Inlet,1
 Non-Parent Node Connection,OFFICE_PRIVATE_1_Z11_ADUOUTLET,COIL:HEATING:ELECTRIC,OFFICE_PRIVATE_1_Z11_REHEATCOIL,Outlet,1
 Non-Parent Node Connection,STORAGE_1_Z12_COOLC-HEATCNODE,COIL:HEATING:ELECTRIC,STORAGE_1_Z12_HEATINGCOIL,Inlet,1
 Non-Parent Node Connection,STORAGE_1_Z12_HEATC-FANNODE,COIL:HEATING:ELECTRIC,STORAGE_1_Z12_HEATINGCOIL,Outlet,1
 Non-Parent Node Connection,STORAGE_1_Z12_HEATC-FANNODE,COIL:HEATING:ELECTRIC,STORAGE_1_Z12_HEATINGCOIL,Sensor,1
 Non-Parent Node Connection,STORAGE_1_Z12_REHEATINLET,COIL:HEATING:ELECTRIC,STORAGE_1_Z12_REHEATCOIL,Inlet,1
 Non-Parent Node Connection,STORAGE_1_Z12_ADUOUTLET,COIL:HEATING:ELECTRIC,STORAGE_1_Z12_REHEATCOIL,Outlet,1
 Non-Parent Node Connection,LOBBY_2_Z13_COOLC-HEATCNODE,COIL:HEATING:ELECTRIC,LOBBY_2_Z13_HEATINGCOIL,Inlet,1
 Non-Parent Node Connection,LOBBY_2_Z13_HEATC-FANNODE,COIL:HEATING:ELECTRIC,LOBBY_2_Z13_HEATINGCOIL,Outlet,1
 Non-Parent Node Connection,LOBBY_2_Z13_HEATC-FANNODE,COIL:HEATING:ELECTRIC,LOBBY_2_Z13_HEATINGCOIL,Sensor,1
 Non-Parent Node Connection,LOBBY_2_Z13_REHEATINLET,COIL:HEATING:ELECTRIC,LOBBY_2_Z13_REHEATCOIL,Inlet,1
 Non-Parent Node Connection,LOBBY_2_Z13_ADUOUTLET,COIL:HEATING:ELECTRIC,LOBBY_2_Z13_REHEATCOIL,Outlet,1
 Non-Parent Node Connection,CONFERENCE_2_Z14_COOLC-HEATCNODE,COIL:HEATING:ELECTRIC,CONFERENCE_2_Z14_HEATINGCOIL,Inlet,1
 Non-Parent Node Connection,CONFERENCE_2_Z14_HEATC-FANNODE,COIL:HEATING:ELECTRIC,CONFERENCE_2_Z14_HEATINGCOIL,Outlet,1
 Non-Parent Node Connection,CONFERENCE_2_Z14_HEATC-FANNODE,COIL:HEATING:ELECTRIC,CONFERENCE_2_Z14_HEATINGCOIL,Sensor,1
 Non-Parent Node Connection,CONFERENCE_2_Z14_REHEATINLET,COIL:HEATING:ELECTRIC,CONFERENCE_2_Z14_REHEATCOIL,Inlet,1
 Non-Parent Node Connection,CONFERENCE_2_Z14_ADUOUTLET,COIL:HEATING:ELECTRIC,CONFERENCE_2_Z14_REHEATCOIL,Outlet,1
 Non-Parent Node Connection,MECHANICAL_2_Z15_COOLC-HEATCNODE,COIL:HEATING:ELECTRIC,MECHANICAL_2_Z15_HEATINGCOIL,Inlet,1
 Non-Parent Node Connection,MECHANICAL_2_Z15_HEATC-FANNODE,COIL:HEATING:ELECTRIC,MECHANICAL_2_Z15_HEATINGCOIL,Outlet,1
 Non-Parent Node Connection,MECHANICAL_2_Z15_HEATC-FANNODE,COIL:HEATING:ELECTRIC,MECHANICAL_2_Z15_HEATINGCOIL,Sensor,1
 Non-Parent Node Connection,MECHANICAL_2_Z15_REHEATINLET,COIL:HEATING:ELECTRIC,MECHANICAL_2_Z15_REHEATCOIL,Inlet,1
 Non-Parent Node Connection,MECHANICAL_2_Z15_ADUOUTLET,COIL:HEATING:ELECTRIC,MECHANICAL_2_Z15_REHEATCOIL,Outlet,1
 Non-Parent Node Connection,OFFICE_OPEN_2_Z16_COOLC-HEATCNODE,COIL:HEATING:ELECTRIC,OFFICE_OPEN_2_Z16_HEATINGCOIL,Inlet,1
 Non-Parent Node Connection,OFFICE_OPEN_2_Z16_HEATC-FANNODE,COIL:HEATING:ELECTRIC,OFFICE_OPEN_2_Z16_HEATINGCOIL,Outlet,1
 Non-Parent Node Connection,OFFICE_OPEN_2_Z16_HEATC-FANNODE,COIL:HEATING:ELECTRIC,OFFICE_OPEN_2_Z16_HEATINGCOIL,Sensor,1
 Non-Parent Node Connection,OFFICE_OPEN_2_Z16_REHEATINLET,COIL:HEATING:ELECTRIC,OFFICE_OPEN_2_Z16_REHEATCOIL,Inlet,1
 Non-Parent Node Connection,OFFICE_OPEN_2_Z16_ADUOUTLET,COIL:HEATING:ELECTRIC,OFFICE_OPEN_2_Z16_REHEATCOIL,Outlet,1
 Non-Parent Node Connection,OFFICE_PRIVATE_2_Z17_COOLC-HEATCNODE,COIL:HEATING:ELECTRIC,OFFICE_PRIVATE_2_Z17_HEATINGCOIL,Inlet,1
 Non-Parent Node Connection,OFFICE_PRIVATE_2_Z17_HEATC-FANNODE,COIL:HEATING:ELECTRIC,OFFICE_PRIVATE_2_Z17_HEATINGCOIL,Outlet,1
 Non-Parent Node Connection,OFFICE_PRIVATE_2_Z17_HEATC-FANNODE,COIL:HEATING:ELECTRIC,OFFICE_PRIVATE_2_Z17_HEATINGCOIL,Sensor,1
 Non-Parent Node Connection,OFFICE_PRIVATE_2_Z17_REHEATINLET,COIL:HEATING:ELECTRIC,OFFICE_PRIVATE_2_Z17_REHEATCOIL,Inlet,1
 Non-Parent Node Connection,OFFICE_PRIVATE_2_Z17_ADUOUTLET,COIL:HEATING:ELECTRIC,OFFICE_PRIVATE_2_Z17_REHEATCOIL,Outlet,1
 Non-Parent Node Connection,STORAGE_2_Z18_COOLC-HEATCNODE,COIL:HEATING:ELECTRIC,STORAGE_2_Z18_HEATINGCOIL,Inlet,1
 Non-Parent Node Connection,STORAGE_2_Z18_HEATC-FANNODE,COIL:HEATING:ELECTRIC,STORAGE_2_Z18_HEATINGCOIL,Outlet,1
 Non-Parent Node Connection,STORAGE_2_Z18_HEATC-FANNODE,COIL:HEATING:ELECTRIC,STORAGE_2_Z18_HEATINGCOIL,Sensor,1
 Non-Parent Node Connection,STORAGE_2_Z18_REHEATINLET,COIL:HEATING:ELECTRIC,STORAGE_2_Z18_REHEATCOIL,Inlet,1
 Non-Parent Node Connection,STORAGE_2_Z18_ADUOUTLET,COIL:HEATING:ELECTRIC,STORAGE_2_Z18_REHEATCOIL,Outlet,1
 Non-Parent Node Connection,LOBBY_0_Z1_ZONEEQUIPMENTOUTLETNODE,AIRLOOPHVAC:ZONEMIXER,LOBBY_0_Z1_RETURNAIRMIXER,Outlet,1
 Non-Parent Node Connection,LOBBY_0_Z1_RETURNAIR,AIRLOOPHVAC:ZONEMIXER,LOBBY_0_Z1_RETURNAIRMIXER,Inlet,1
 Non-Parent Node Connection,CONFERENCE_0_Z2_ZONEEQUIPMENTOUTLETNODE,AIRLOOPHVAC:ZONEMIXER,CONFERENCE_0_Z2_RETURNAIRMIXER,Outlet,1
 Non-Parent Node Connection,CONFERENCE_0_Z2_RETURNAIR,AIRLOOPHVAC:ZONEMIXER,CONFERENCE_0_Z2_RETURNAIRMIXER,Inlet,1
 Non-Parent Node Connection,BREAK_ROOM_0_Z3_ZONEEQUIPMENTOUTLETNODE,AIRLOOPHVAC:ZONEMIXER,BREAK_ROOM_0_Z3_RETURNAIRMIXER,Outlet,1
 Non-Parent Node Connection,BREAK_ROOM_0_Z3_RETURNAIR,AIRLOOPHVAC:ZONEMIXER,BREAK_ROOM_0_Z3_RETURNAIRMIXER,Inlet,1
 Non-Parent Node Connection,MECHANICAL_0_Z4_ZONEEQUIPMENTOUTLETNODE,AIRLOOPHVAC:ZONEMIXER,MECHANICAL_0_Z4_RETURNAIRMIXER,Outlet,1
 Non-Parent Node Connection,MECHANICAL_0_Z4_RETURNAIR,AIRLOOPHVAC:ZONEMIXER,MECHANICAL_0_Z4_RETURNAIRMIXER,Inlet,1
 Non-Parent Node Connection,OFFICE_OPEN_0_Z5_ZONEEQUIPMENTOUTLETNODE,AIRLOOPHVAC:ZONEMIXER,OFFICE_OPEN_0_Z5_RETURNAIRMIXER,Outlet,1
 Non-Parent Node Connection,OFFICE_OPEN_0_Z5_RETURNAIR,AIRLOOPHVAC:ZONEMIXER,OFFICE_OPEN_0_Z5_RETURNAIRMIXER,Inlet,1
 Non-Parent Node Connection,OFFICE_PRIVATE_0_Z6_ZONEEQUIPMENTOUTLETNODE,AIRLOOPHVAC:ZONEMIXER,OFFICE_PRIVATE_0_Z6_RETURNAIRMIXER,Outlet,1
 Non-Parent Node Connection,OFFICE_PRIVATE_0_Z6_RETURNAIR,AIRLOOPHVAC:ZONEMIXER,OFFICE_PRIVATE_0_Z6_RETURNAIRMIXER,Inlet,1
 Non-Parent Node Connection,STORAGE_0_Z7_ZONEEQUIPMENTOUTLETNODE,AIRLOOPHVAC:ZONEMIXER,STORAGE_0_Z7_RETURNAIRMIXER,Outlet,1
 Non-Parent Node Connection,STORAGE_0_Z7_RETURNAIR,AIRLOOPHVAC:ZONEMIXER,STORAGE_0_Z7_RETURNAIRMIXER,Inlet,1
 Non-Parent Node Connection,CONFERENCE_1_Z8_ZONEEQUIPMENTOUTLETNODE,AIRLOOPHVAC:ZONEMIXER,CONFERENCE_1_Z8_RETURNAIRMIXER,Outlet,1
 Non-Parent Node Connection,CONFERENCE_1_Z8_RETURNAIR,AIRLOOPHVAC:ZONEMIXER,CONFERENCE_1_Z8_RETURNAIRMIXER,Inlet,1
 Non-Parent Node Connection,BREAK_ROOM_1_Z9_ZONEEQUIPMENTOUTLETNODE,AIRLOOPHVAC:ZONEMIXER,BREAK_ROOM_1_Z9_RETURNAIRMIXER,Outlet,1
 Non-Parent Node Connection,BREAK_ROOM_1_Z9_RETURNAIR,AIRLOOPHVAC:ZONEMIXER,BREAK_ROOM_1_Z9_RETURNAIRMIXER,Inlet,1
 Non-Parent Node Connection,MECHANICAL_1_Z10_ZONEEQUIPMENTOUTLETNODE,AIRLOOPHVAC:ZONEMIXER,MECHANICAL_1_Z10_RETURNAIRMIXER,Outlet,1
 Non-Parent Node Connection,MECHANICAL_1_Z10_RETURNAIR,AIRLOOPHVAC:ZONEMIXER,MECHANICAL_1_Z10_RETURNAIRMIXER,Inlet,1
 Non-Parent Node Connection,OFFICE_PRIVATE_1_Z11_ZONEEQUIPMENTOUTLETNODE,AIRLOOPHVAC:ZONEMIXER,OFFICE_PRIVATE_1_Z11_RETURNAIRMIXER,Outlet,1
 Non-Parent Node Connection,OFFICE_PRIVATE_1_Z11_RETURNAIR,AIRLOOPHVAC:ZONEMIXER,OFFICE_PRIVATE_1_Z11_RETURNAIRMIXER,Inlet,1
 Non-Parent Node Connection,STORAGE_1_Z12_ZONEEQUIPMENTOUTLETNODE,AIRLOOPHVAC:ZONEMIXER,STORAGE_1_Z12_RETURNAIRMIXER,Outlet,1
 Non-Parent Node Connection,STORAGE_1_Z12_RETURNAIR,AIRLOOPHVAC:ZONEMIXER,STORAGE_1_Z12_RETURNAIRMIXER,Inlet,1
 Non-Parent Node Connection,LOBBY_2_Z13_ZONEEQUIPMENTOUTLETNODE,AIRLOOPHVAC:ZONEMIXER,LOBBY_2_Z13_RETURNAIRMIXER,Outlet,1
 Non-Parent Node Connection,LOBBY_2_Z13_RETURNAIR,AIRLOOPHVAC:ZONEMIXER,LOBBY_2_Z13_RETURNAIRMIXER,Inlet,1
 Non-Parent Node Connection,CONFERENCE_2_Z14_ZONEEQUIPMENTOUTLETNODE,AIRLOOPHVAC:ZONEMIXER,CONFERENCE_2_Z14_RETURNAIRMIXER,Outlet,1
 Non-Parent Node Connection,CONFERENCE_2_Z14_RETURNAIR,AIRLOOPHVAC:ZONEMIXER,CONFERENCE_2_Z14_RETURNAIRMIXER,Inlet,1
 Non-Parent Node Connection,MECHANICAL_2_Z15_ZONEEQUIPMENTOUTLETNODE,AIRLOOPHVAC:ZONEMIXER,MECHANICAL_2_Z15_RETURNAIRMIXER,Outlet,1
 Non-Parent Node Connection,MECHANICAL_2_Z15_RETURNAIR,AIRLOOPHVAC:ZONEMIXER,MECHANICAL_2_Z15_RETURNAIRMIXER,Inlet,1
 Non-Parent Node Connection,OFFICE_OPEN_2_Z16_ZONEEQUIPMENTOUTLETNODE,AIRLOOPHVAC:ZONEMIXER,OFFICE_OPEN_2_Z16_RETURNAIRMIXER,Outlet,1
 Non-Parent Node Connection,OFFICE_OPEN_2_Z16_RETURNAIR,AIRLOOPHVAC:ZONEMIXER,OFFICE_OPEN_2_Z16_RETURNAIRMIXER,Inlet,1
 Non-Parent Node Connection,OFFICE_PRIVATE_2_Z17_ZONEEQUIPMENTOUTLETNODE,AIRLOOPHVAC:ZONEMIXER,OFFICE_PRIVATE_2_Z17_RETURNAIRMIXER,Outlet,1
 Non-Parent Node Connection,OFFICE_PRIVATE_2_Z17_RETURNAIR,AIRLOOPHVAC:ZONEMIXER,OFFICE_PRIVATE_2_Z17_RETURNAIRMIXER,Inlet,1
 Non-Parent Node Connection,STORAGE_2_Z18_ZONEEQUIPMENTOUTLETNODE,AIRLOOPHVAC:ZONEMIXER,STORAGE_2_Z18_RETURNAIRMIXER,Outlet,1
 Non-Parent Node Connection,STORAGE_2_Z18_RETURNAIR,AIRLOOPHVAC:ZONEMIXER,STORAGE_2_Z18_RETURNAIRMIXER,Inlet,1
 Non-Parent Node Connection,LOBBY_0_Z1_HEATC-FANNODE,FAN:VARIABLEVOLUME,LOBBY_0_Z1_SUPPLYFAN,Inlet,1
 Non-Parent Node Connection,LOBBY_0_Z1_SUPPLYEQUIPMENTOUTLETNODE,FAN:VARIABLEVOLUME,LOBBY_0_Z1_SUPPLYFAN,Outlet,1
 Non-Parent Node Connection,CONFERENCE_0_Z2_HEATC-FANNODE,FAN:VARIABLEVOLUME,CONFERENCE_0_Z2_SUPPLYFAN,Inlet,1
 Non-Parent Node Connection,CONFERENCE_0_Z2_SUPPLYEQUIPMENTOUTLETNODE,FAN:VARIABLEVOLUME,CONFERENCE_0_Z2_SUPPLYFAN,Outlet,1
 Non-Parent Node Connection,BREAK_ROOM_0_Z3_HEATC-FANNODE,FAN:VARIABLEVOLUME,BREAK_ROOM_0_Z3_SUPPLYFAN,Inlet,1
 Non-Parent Node Connection,BREAK_ROOM_0_Z3_SUPPLYEQUIPMENTOUTLETNODE,FAN:VARIABLEVOLUME,BREAK_ROOM_0_Z3_SUPPLYFAN,Outlet,1
 Non-Parent Node Connection,MECHANICAL_0_Z4_HEATC-FANNODE,FAN:VARIABLEVOLUME,MECHANICAL_0_Z4_SUPPLYFAN,Inlet,1
 Non-Parent Node Connection,MECHANICAL_0_Z4_SUPPLYEQUIPMENTOUTLETNODE,FAN:VARIABLEVOLUME,MECHANICAL_0_Z4_SUPPLYFAN,Outlet,1
 Non-Parent Node Connection,OFFICE_OPEN_0_Z5_HEATC-FANNODE,FAN:VARIABLEVOLUME,OFFICE_OPEN_0_Z5_SUPPLYFAN,Inlet,1
 Non-Parent Node Connection,OFFICE_OPEN_0_Z5_SUPPLYEQUIPMENTOUTLETNODE,FAN:VARIABLEVOLUME,OFFICE_OPEN_0_Z5_SUPPLYFAN,Outlet,1
 Non-Parent Node Connection,OFFICE_PRIVATE_0_Z6_HEATC-FANNODE,FAN:VARIABLEVOLUME,OFFICE_PRIVATE_0_Z6_SUPPLYFAN,Inlet,1
 Non-Parent Node Connection,OFFICE_PRIVATE_0_Z6_SUPPLYEQUIPMENTOUTLETNODE,FAN:VARIABLEVOLUME,OFFICE_PRIVATE_0_Z6_SUPPLYFAN,Outlet,1
 Non-Parent Node Connection,STORAGE_0_Z7_HEATC-FANNODE,FAN:VARIABLEVOLUME,STORAGE_0_Z7_SUPPLYFAN,Inlet,1
 Non-Parent Node Connection,STORAGE_0_Z7_SUPPLYEQUIPMENTOUTLETNODE,FAN:VARIABLEVOLUME,STORAGE_0_Z7_SUPPLYFAN,Outlet,1
 Non-Parent Node Connection,CONFERENCE_1_Z8_HEATC-FANNODE,FAN:VARIABLEVOLUME,CONFERENCE_1_Z8_SUPPLYFAN,Inlet,1
 Non-Parent Node Connection,CONFERENCE_1_Z8_SUPPLYEQUIPMENTOUTLETNODE,FAN:VARIABLEVOLUME,CONFERENCE_1_Z8_SUPPLYFAN,Outlet,1
 Non-Parent Node Connection,BREAK_ROOM_1_Z9_HEATC-FANNODE,FAN:VARIABLEVOLUME,BREAK_ROOM_1_Z9_SUPPLYFAN,Inlet,1
 Non-Parent Node Connection,BREAK_ROOM_1_Z9_SUPPLYEQUIPMENTOUTLETNODE,FAN:VARIABLEVOLUME,BREAK_ROOM_1_Z9_SUPPLYFAN,Outlet,1
 Non-Parent Node Connection,MECHANICAL_1_Z10_HEATC-FANNODE,FAN:VARIABLEVOLUME,MECHANICAL_1_Z10_SUPPLYFAN,Inlet,1
 Non-Parent Node Connection,MECHANICAL_1_Z10_SUPPLYEQUIPMENTOUTLETNODE,FAN:VARIABLEVOLUME,MECHANICAL_1_Z10_SUPPLYFAN,Outlet,1
 Non-Parent Node Connection,OFFICE_PRIVATE_1_Z11_HEATC-FANNODE,FAN:VARIABLEVOLUME,OFFICE_PRIVATE_1_Z11_SUPPLYFAN,Inlet,1
 Non-Parent Node Connection,OFFICE_PRIVATE_1_Z11_SUPPLYEQUIPMENTOUTLETNODE,FAN:VARIABLEVOLUME,OFFICE_PRIVATE_1_Z11_SUPPLYFAN,Outlet,1
 Non-Parent Node Connection,STORAGE_1_Z12_HEATC-FANNODE,FAN:VARIABLEVOLUME,STORAGE_1_Z12_SUPPLYFAN,Inlet,1
 Non-Parent Node Connection,STORAGE_1_Z12_SUPPLYEQUIPMENTOUTLETNODE,FAN:VARIABLEVOLUME,STORAGE_1_Z12_SUPPLYFAN,Outlet,1
 Non-Parent Node Connection,LOBBY_2_Z13_HEATC-FANNODE,FAN:VARIABLEVOLUME,LOBBY_2_Z13_SUPPLYFAN,Inlet,1
 Non-Parent Node Connection,LOBBY_2_Z13_SUPPLYEQUIPMENTOUTLETNODE,FAN:VARIABLEVOLUME,LOBBY_2_Z13_SUPPLYFAN,Outlet,1
 Non-Parent Node Connection,CONFERENCE_2_Z14_HEATC-FANNODE,FAN:VARIABLEVOLUME,CONFERENCE_2_Z14_SUPPLYFAN,Inlet,1
 Non-Parent Node Connection,CONFERENCE_2_Z14_SUPPLYEQUIPMENTOUTLETNODE,FAN:VARIABLEVOLUME,CONFERENCE_2_Z14_SUPPLYFAN,Outlet,1
 Non-Parent Node Connection,MECHANICAL_2_Z15_HEATC-FANNODE,FAN:VARIABLEVOLUME,MECHANICAL_2_Z15_SUPPLYFAN,Inlet,1
 Non-Parent Node Connection,MECHANICAL_2_Z15_SUPPLYEQUIPMENTOUTLETNODE,FAN:VARIABLEVOLUME,MECHANICAL_2_Z15_SUPPLYFAN,Outlet,1
 Non-Parent Node Connection,OFFICE_OPEN_2_Z16_HEATC-FANNODE,FAN:VARIABLEVOLUME,OFFICE_OPEN_2_Z16_SUPPLYFAN,Inlet,1
 Non-Parent Node Connection,OFFICE_OPEN_2_Z16_SUPPLYEQUIPMENTOUTLETNODE,FAN:VARIABLEVOLUME,OFFICE_OPEN_2_Z16_SUPPLYFAN,Outlet,1
 Non-Parent Node Connection,OFFICE_PRIVATE_2_Z17_HEATC-FANNODE,FAN:VARIABLEVOLUME,OFFICE_PRIVATE_2_Z17_SUPPLYFAN,Inlet,1
 Non-Parent Node Connection,OFFICE_PRIVATE_2_Z17_SUPPLYEQUIPMENTOUTLETNODE,FAN:VARIABLEVOLUME,OFFICE_PRIVATE_2_Z17_SUPPLYFAN,Outlet,1
 Non-Parent Node Connection,STORAGE_2_Z18_HEATC-FANNODE,FAN:VARIABLEVOLUME,STORAGE_2_Z18_SUPPLYFAN,Inlet,1
 Non-Parent Node Connection,STORAGE_2_Z18_SUPPLYEQUIPMENTOUTLETNODE,FAN:VARIABLEVOLUME,STORAGE_2_Z18_SUPPLYFAN,Outlet,1
 Non-Parent Node Connection,LOBBY_0_Z1_SUPPLYINLET,COIL:COOLING:DX:SINGLESPEED,LOBBY_0_Z1_COOLINGCOILDX,Inlet,1
 Non-Parent Node Connection,LOBBY_0_Z1_COOLC-HEATCNODE,COIL:COOLING:DX:SINGLESPEED,LOBBY_0_Z1_COOLINGCOILDX,Outlet,1
 Non-Parent Node Connection,CONFERENCE_0_Z2_SUPPLYINLET,COIL:COOLING:DX:SINGLESPEED,CONFERENCE_0_Z2_COOLINGCOILDX,Inlet,1
 Non-Parent Node Connection,CONFERENCE_0_Z2_COOLC-HEATCNODE,COIL:COOLING:DX:SINGLESPEED,CONFERENCE_0_Z2_COOLINGCOILDX,Outlet,1
 Non-Parent Node Connection,BREAK_ROOM_0_Z3_SUPPLYINLET,COIL:COOLING:DX:SINGLESPEED,BREAK_ROOM_0_Z3_COOLINGCOILDX,Inlet,1
 Non-Parent Node Connection,BREAK_ROOM_0_Z3_COOLC-HEATCNODE,COIL:COOLING:DX:SINGLESPEED,BREAK_ROOM_0_Z3_COOLINGCOILDX,Outlet,1
 Non-Parent Node Connection,MECHANICAL_0_Z4_SUPPLYINLET,COIL:COOLING:DX:SINGLESPEED,MECHANICAL_0_Z4_COOLINGCOILDX,Inlet,1
 Non-Parent Node Connection,MECHANICAL_0_Z4_COOLC-HEATCNODE,COIL:COOLING:DX:SINGLESPEED,MECHANICAL_0_Z4_COOLINGCOILDX,Outlet,1
 Non-Parent Node Connection,OFFICE_OPEN_0_Z5_SUPPLYINLET,COIL:COOLING:DX:SINGLESPEED,OFFICE_OPEN_0_Z5_COOLINGCOILDX,Inlet,1
 Non-Parent Node Connection,OFFICE_OPEN_0_Z5_COOLC-HEATCNODE,COIL:COOLING:DX:SINGLESPEED,OFFICE_OPEN_0_Z5_COOLINGCOILDX,Outlet,1
 Non-Parent Node Connection,OFFICE_PRIVATE_0_Z6_SUPPLYINLET,COIL:COOLING:DX:SINGLESPEED,OFFICE_PRIVATE_0_Z6_COOLINGCOILDX,Inlet,1
 Non-Parent Node Connection,OFFICE_PRIVATE_0_Z6_COOLC-HEATCNODE,COIL:COOLING:DX:SINGLESPEED,OFFICE_PRIVATE_0_Z6_COOLINGCOILDX,Outlet,1
 Non-Parent Node Connection,STORAGE_0_Z7_SUPPLYINLET,COIL:COOLING:DX:SINGLESPEED,STORAGE_0_Z7_COOLINGCOILDX,Inlet,1
 Non-Parent Node Connection,STORAGE_0_Z7_COOLC-HEATCNODE,COIL:COOLING:DX:SINGLESPEED,STORAGE_0_Z7_COOLINGCOILDX,Outlet,1
 Non-Parent Node Connection,CONFERENCE_1_Z8_SUPPLYINLET,COIL:COOLING:DX:SINGLESPEED,CONFERENCE_1_Z8_COOLINGCOILDX,Inlet,1
 Non-Parent Node Connection,CONFERENCE_1_Z8_COOLC-HEATCNODE,COIL:COOLING:DX:SINGLESPEED,CONFERENCE_1_Z8_COOLINGCOILDX,Outlet,1
 Non-Parent Node Connection,BREAK_ROOM_1_Z9_SUPPLYINLET,COIL:COOLING:DX:SINGLESPEED,BREAK_ROOM_1_Z9_COOLINGCOILDX,Inlet,1
 Non-Parent Node Connection,BREAK_ROOM_1_Z9_COOLC-HEATCNODE,COIL:COOLING:DX:SINGLESPEED,BREAK_ROOM_1_Z9_COOLINGCOILDX,Outlet,1
 Non-Parent Node Connection,MECHANICAL_1_Z10_SUPPLYINLET,COIL:COOLING:DX:SINGLESPEED,MECHANICAL_1_Z10_COOLINGCOILDX,Inlet,1
 Non-Parent Node Connection,MECHANICAL_1_Z10_COOLC-HEATCNODE,COIL:COOLING:DX:SINGLESPEED,MECHANICAL_1_Z10_COOLINGCOILDX,Outlet,1
 Non-Parent Node Connection,OFFICE_PRIVATE_1_Z11_SUPPLYINLET,COIL:COOLING:DX:SINGLESPEED,OFFICE_PRIVATE_1_Z11_COOLINGCOILDX,Inlet,1
 Non-Parent Node Connection,OFFICE_PRIVATE_1_Z11_COOLC-HEATCNODE,COIL:COOLING:DX:SINGLESPEED,OFFICE_PRIVATE_1_Z11_COOLINGCOILDX,Outlet,1
 Non-Parent Node Connection,STORAGE_1_Z12_SUPPLYINLET,COIL:COOLING:DX:SINGLESPEED,STORAGE_1_Z12_COOLINGCOILDX,Inlet,1
 Non-Parent Node Connection,STORAGE_1_Z12_COOLC-HEATCNODE,COIL:COOLING:DX:SINGLESPEED,STORAGE_1_Z12_COOLINGCOILDX,Outlet,1
 Non-Parent Node Connection,LOBBY_2_Z13_SUPPLYINLET,COIL:COOLING:DX:SINGLESPEED,LOBBY_2_Z13_COOLINGCOILDX,Inlet,1
 Non-Parent Node Connection,LOBBY_2_Z13_COOLC-HEATCNODE,COIL:COOLING:DX:SINGLESPEED,LOBBY_2_Z13_COOLINGCOILDX,Outlet,1
 Non-Parent Node Connection,CONFERENCE_2_Z14_SUPPLYINLET,COIL:COOLING:DX:SINGLESPEED,CONFERENCE_2_Z14_COOLINGCOILDX,Inlet,1
 Non-Parent Node Connection,CONFERENCE_2_Z14_COOLC-HEATCNODE,COIL:COOLING:DX:SINGLESPEED,CONFERENCE_2_Z14_COOLINGCOILDX,Outlet,1
 Non-Parent Node Connection,MECHANICAL_2_Z15_SUPPLYINLET,COIL:COOLING:DX:SINGLESPEED,MECHANICAL_2_Z15_COOLINGCOILDX,Inlet,1
 Non-Parent Node Connection,MECHANICAL_2_Z15_COOLC-HEATCNODE,COIL:COOLING:DX:SINGLESPEED,MECHANICAL_2_Z15_COOLINGCOILDX,Outlet,1
 Non-Parent Node Connection,OFFICE_OPEN_2_Z16_SUPPLYINLET,COIL:COOLING:DX:SINGLESPEED,OFFICE_OPEN_2_Z16_COOLINGCOILDX,Inlet,1
 Non-Parent Node Connection,OFFICE_OPEN_2_Z16_COOLC-HEATCNODE,COIL:COOLING:DX:SINGLESPEED,OFFICE_OPEN_2_Z16_COOLINGCOILDX,Outlet,1
 Non-Parent Node Connection,OFFICE_PRIVATE_2_Z17_SUPPLYINLET,COIL:COOLING:DX:SINGLESPEED,OFFICE_PRIVATE_2_Z17_COOLINGCOILDX,Inlet,1
 Non-Parent Node Connection,OFFICE_PRIVATE_2_Z17_COOLC-HEATCNODE,COIL:COOLING:DX:SINGLESPEED,OFFICE_PRIVATE_2_Z17_COOLINGCOILDX,Outlet,1
 Non-Parent Node Connection,STORAGE_2_Z18_SUPPLYINLET,COIL:COOLING:DX:SINGLESPEED,STORAGE_2_Z18_COOLINGCOILDX,Inlet,1
 Non-Parent Node Connection,STORAGE_2_Z18_COOLC-HEATCNODE,COIL:COOLING:DX:SINGLESPEED,STORAGE_2_Z18_COOLINGCOILDX,Outlet,1
