Program Version,EnergyPlus, Version 24.2.0-94a887817b, YMD=2025.11.01 22:56,
   ** Severe  ** Line: 4043 Index: 0 - Object contains more field values than maximum number of IDD fields and is not extensible.
   ** Severe  ** Line: 4043 Index: 0 - Error parsing "ZoneInfiltration:EffectiveLeakageArea". Error in following line.
   ** Severe  ** ~~~   1.225,                               !- Air Density {kg/m3
   ** Severe  ** Line: 4043 Index: 7 - "1.225" is not a valid Object Type.
   ** Severe  ** Line: 4171 Index: 0 - Object contains more field values than maximum number of IDD fields and is not extensible.
   ** Severe  ** Line: 4171 Index: 0 - Error parsing "ZoneInfiltration:EffectiveLeakageArea". Error in following line.
   ** Severe  ** ~~~   1.225,                               !- Air Density {kg/m3
   ** Severe  ** Line: 4171 Index: 7 - "1.225" is not a valid Object Type.
   ** Severe  ** Line: 4299 Index: 0 - Object contains more field values than maximum number of IDD fields and is not extensible.
   ** Severe  ** Line: 4299 Index: 0 - Error parsing "ZoneInfiltration:EffectiveLeakageArea". Error in following line.
   ** Severe  ** ~~~   1.225,                               !- Air Density {kg/m3
   ** Severe  ** Line: 4299 Index: 7 - "1.225" is not a valid Object Type.
   ** Severe  ** Line: 4399 Index: 0 - Object contains more field values than maximum number of IDD fields and is not extensible.
   ** Severe  ** Line: 4399 Index: 0 - Error parsing "ZoneInfiltration:EffectiveLeakageArea". Error in following line.
   ** Severe  ** ~~~   1.225,                               !- Air Density {kg/m3
   ** Severe  ** Line: 4399 Index: 7 - "1.225" is not a valid Object Type.
   ** Severe  ** Line: 4527 Index: 0 - Object contains more field values than maximum number of IDD fields and is not extensible.
   ** Severe  ** Line: 4527 Index: 0 - Error parsing "ZoneInfiltration:EffectiveLeakageArea". Error in following line.
   ** Severe  ** ~~~   1.225,                               !- Air Density {kg/m3
   ** Severe  ** Line: 4527 Index: 7 - "1.225" is not a valid Object Type.
   ** Severe  ** Line: 4655 Index: 0 - Object contains more field values than maximum number of IDD fields and is not extensible.
   ** Severe  ** Line: 4655 Index: 0 - Error parsing "ZoneInfiltration:EffectiveLeakageArea". Error in following line.
   ** Severe  ** ~~~   1.225,                               !- Air Density {kg/m3
   ** Severe  ** Line: 4655 Index: 7 - "1.225" is not a valid Object Type.
   ** Severe  ** Line: 4755 Index: 0 - Object contains more field values than maximum number of IDD fields and is not extensible.
   ** Severe  ** Line: 4755 Index: 0 - Error parsing "ZoneInfiltration:EffectiveLeakageArea". Error in following line.
   ** Severe  ** ~~~   1.225,                               !- Air Density {kg/m3
   ** Severe  ** Line: 4755 Index: 7 - "1.225" is not a valid Object Type.
   ** Severe  ** Line: 4883 Index: 0 - Object contains more field values than maximum number of IDD fields and is not extensible.
   ** Severe  ** Line: 4883 Index: 0 - Error parsing "ZoneInfiltration:EffectiveLeakageArea". Error in following line.
   ** Severe  ** ~~~   1.225,                               !- Air Density {kg/m3
   ** Severe  ** Line: 4883 Index: 7 - "1.225" is not a valid Object Type.
   ** Severe  ** Line: 4983 Index: 0 - Object contains more field values than maximum number of IDD fields and is not extensible.
   ** Severe  ** Line: 4983 Index: 0 - Error parsing "ZoneInfiltration:EffectiveLeakageArea". Error in following line.
   ** Severe  ** ~~~   1.225,                               !- Air Density {kg/m3
   ** Severe  ** Line: 4983 Index: 7 - "1.225" is not a valid Object Type.
   ** Severe  ** Line: 5111 Index: 0 - Object contains more field values than maximum number of IDD fields and is not extensible.
   ** Severe  ** Line: 5111 Index: 0 - Error parsing "ZoneInfiltration:EffectiveLeakageArea". Error in following line.
   ** Severe  ** ~~~   1.225,                               !- Air Density {kg/m3
   ** Severe  ** Line: 5111 Index: 7 - "1.225" is not a valid Object Type.
   ** Severe  ** Line: 5211 Index: 0 - Object contains more field values than maximum number of IDD fields and is not extensible.
   ** Severe  ** Line: 5211 Index: 0 - Error parsing "ZoneInfiltration:EffectiveLeakageArea". Error in following line.
   ** Severe  ** ~~~   1.225,                               !- Air Density {kg/m3
   ** Severe  ** Line: 5211 Index: 7 - "1.225" is not a valid Object Type.
   ** Severe  ** Line: 5311 Index: 0 - Object contains more field values than maximum number of IDD fields and is not extensible.
   ** Severe  ** Line: 5311 Index: 0 - Error parsing "ZoneInfiltration:EffectiveLeakageArea". Error in following line.
   ** Severe  ** ~~~   1.225,                               !- Air Density {kg/m3
   ** Severe  ** Line: 5311 Index: 7 - "1.225" is not a valid Object Type.
   ** Severe  ** Line: 5439 Index: 0 - Object contains more field values than maximum number of IDD fields and is not extensible.
   ** Severe  ** Line: 5439 Index: 0 - Error parsing "ZoneInfiltration:EffectiveLeakageArea". Error in following line.
   ** Severe  ** ~~~   1.225,                               !- Air Density {kg/m3
   ** Severe  ** Line: 5439 Index: 7 - "1.225" is not a valid Object Type.
   ** Severe  ** Line: 5567 Index: 0 - Object contains more field values than maximum number of IDD fields and is not extensible.
   ** Severe  ** Line: 5567 Index: 0 - Error parsing "ZoneInfiltration:EffectiveLeakageArea". Error in following line.
   ** Severe  ** ~~~   1.225,                               !- Air Density {kg/m3
   ** Severe  ** Line: 5567 Index: 7 - "1.225" is not a valid Object Type.
   ** Severe  ** Line: 5695 Index: 0 - Object contains more field values than maximum number of IDD fields and is not extensible.
   ** Severe  ** Line: 5695 Index: 0 - Error parsing "ZoneInfiltration:EffectiveLeakageArea". Error in following line.
   ** Severe  ** ~~~   1.225,                               !- Air Density {kg/m3
   ** Severe  ** Line: 5695 Index: 7 - "1.225" is not a valid Object Type.
   ** Severe  ** Line: 5823 Index: 0 - Object contains more field values than maximum number of IDD fields and is not extensible.
   ** Severe  ** Line: 5823 Index: 0 - Error parsing "ZoneInfiltration:EffectiveLeakageArea". Error in following line.
   ** Severe  ** ~~~   1.225,                               !- Air Density {kg/m3
   ** Severe  ** Line: 5823 Index: 7 - "1.225" is not a valid Object Type.
   ** Severe  ** Line: 5923 Index: 0 - Object contains more field values than maximum number of IDD fields and is not extensible.
   ** Severe  ** Line: 5923 Index: 0 - Error parsing "ZoneInfiltration:EffectiveLeakageArea". Error in following line.
   ** Severe  ** ~~~   1.225,                               !- Air Density {kg/m3
   ** Severe  ** Line: 5923 Index: 7 - "1.225" is not a valid Object Type.
   ** Severe  ** Line: 6051 Index: 0 - Object contains more field values than maximum number of IDD fields and is not extensible.
   ** Severe  ** Line: 6051 Index: 0 - Error parsing "ZoneInfiltration:EffectiveLeakageArea". Error in following line.
   ** Severe  ** ~~~   1.225,                               !- Air Density {kg/m3
   ** Severe  ** Line: 6051 Index: 7 - "1.225" is not a valid Object Type.
   ** Severe  ** Line: 6151 Index: 0 - Object contains more field values than maximum number of IDD fields and is not extensible.
   ** Severe  ** Line: 6151 Index: 0 - Error parsing "ZoneInfiltration:EffectiveLeakageArea". Error in following line.
   ** Severe  ** ~~~   1.225,                               !- Air Density {kg/m3
   ** Severe  ** Line: 6151 Index: 7 - "1.225" is not a valid Object Type.
   ** Severe  ** Line: 7028 Index: 0 - Object contains more field values than maximum number of IDD fields and is not extensible.
   ** Severe  ** Line: 7028 Index: 0 - Error parsing "DesignSpecification:OutdoorAir". Error in following line.
   ** Severe  ** ~~~   Yes,                                    !- Demand Controlled Ventilation Typ
   ** Severe  ** Line: 7028 Index: 5 - "Yes" is not a valid Object Type.
   ** Severe  ** Line: 7302 Index: 0 - Object contains more field values than maximum number of IDD fields and is not extensible.
   ** Severe  ** Line: 7302 Index: 0 - Error parsing "DesignSpecification:OutdoorAir". Error in following line.
   ** Severe  ** ~~~   Yes,                                    !- Demand Controlled Ventilation Typ
   ** Severe  ** Line: 7302 Index: 5 - "Yes" is not a valid Object Type.
   ** Severe  ** Line: 7576 Index: 0 - Object contains more field values than maximum number of IDD fields and is not extensible.
   ** Severe  ** Line: 7576 Index: 0 - Error parsing "DesignSpecification:OutdoorAir". Error in following line.
   ** Severe  ** ~~~   Yes,                                    !- Demand Controlled Ventilation Typ
   ** Severe  ** Line: 7576 Index: 5 - "Yes" is not a valid Object Type.
   ** Severe  ** Line: 7850 Index: 0 - Object contains more field values than maximum number of IDD fields and is not extensible.
   ** Severe  ** Line: 7850 Index: 0 - Error parsing "DesignSpecification:OutdoorAir". Error in following line.
   ** Severe  ** ~~~   Yes,                                    !- Demand Controlled Ventilation Typ
   ** Severe  ** Line: 7850 Index: 5 - "Yes" is not a valid Object Type.
   ** Severe  ** Line: 8124 Index: 0 - Object contains more field values than maximum number of IDD fields and is not extensible.
   ** Severe  ** Line: 8124 Index: 0 - Error parsing "DesignSpecification:OutdoorAir". Error in following line.
   ** Severe  ** ~~~   Yes,                                    !- Demand Controlled Ventilation Typ
   ** Severe  ** Line: 8124 Index: 5 - "Yes" is not a valid Object Type.
   ** Severe  ** Line: 8398 Index: 0 - Object contains more field values than maximum number of IDD fields and is not extensible.
   ** Severe  ** Line: 8398 Index: 0 - Error parsing "DesignSpecification:OutdoorAir". Error in following line.
   ** Severe  ** ~~~   Yes,                                    !- Demand Controlled Ventilation Typ
   ** Severe  ** Line: 8398 Index: 5 - "Yes" is not a valid Object Type.
   ** Severe  ** Line: 8672 Index: 0 - Object contains more field values than maximum number of IDD fields and is not extensible.
   ** Severe  ** Line: 8672 Index: 0 - Error parsing "DesignSpecification:OutdoorAir". Error in following line.
   ** Severe  ** ~~~   Yes,                                    !- Demand Controlled Ventilation Typ
   ** Severe  ** Line: 8672 Index: 5 - "Yes" is not a valid Object Type.
   ** Severe  ** Line: 8946 Index: 0 - Object contains more field values than maximum number of IDD fields and is not extensible.
   ** Severe  ** Line: 8946 Index: 0 - Error parsing "DesignSpecification:OutdoorAir". Error in following line.
   ** Severe  ** ~~~   Yes,                                    !- Demand Controlled Ventilation Typ
   ** Severe  ** Line: 8946 Index: 5 - "Yes" is not a valid Object Type.
   ** Severe  ** Line: 9220 Index: 0 - Object contains more field values than maximum number of IDD fields and is not extensible.
   ** Severe  ** Line: 9220 Index: 0 - Error parsing "DesignSpecification:OutdoorAir". Error in following line.
   ** Severe  ** ~~~   Yes,                                    !- Demand Controlled Ventilation Typ
   ** Severe  ** Line: 9220 Index: 5 - "Yes" is not a valid Object Type.
   ** Severe  ** Line: 9494 Index: 0 - Object contains more field values than maximum number of IDD fields and is not extensible.
   ** Severe  ** Line: 9494 Index: 0 - Error parsing "DesignSpecification:OutdoorAir". Error in following line.
   ** Severe  ** ~~~   Yes,                                    !- Demand Controlled Ventilation Typ
   ** Severe  ** Line: 9494 Index: 5 - "Yes" is not a valid Object Type.
   ** Severe  ** Line: 9768 Index: 0 - Object contains more field values than maximum number of IDD fields and is not extensible.
   ** Severe  ** Line: 9768 Index: 0 - Error parsing "DesignSpecification:OutdoorAir". Error in following line.
   ** Severe  ** ~~~   Yes,                                    !- Demand Controlled Ventilation Typ
   ** Severe  ** Line: 9768 Index: 5 - "Yes" is not a valid Object Type.
   ** Severe  ** Line: 10042 Index: 0 - Object contains more field values than maximum number of IDD fields and is not extensible.
   ** Severe  ** Line: 10042 Index: 0 - Error parsing "DesignSpecification:OutdoorAir". Error in following line.
   ** Severe  ** ~~~   Yes,                                    !- Demand Controlled Ventilation Typ
   ** Severe  ** Line: 10042 Index: 5 - "Yes" is not a valid Object Type.
   ** Severe  ** Line: 10316 Index: 0 - Object contains more field values than maximum number of IDD fields and is not extensible.
   ** Severe  ** Line: 10316 Index: 0 - Error parsing "DesignSpecification:OutdoorAir". Error in following line.
   ** Severe  ** ~~~   Yes,                                    !- Demand Controlled Ventilation Typ
   ** Severe  ** Line: 10316 Index: 5 - "Yes" is not a valid Object Type.
   ** Severe  ** Line: 10590 Index: 0 - Object contains more field values than maximum number of IDD fields and is not extensible.
   ** Severe  ** Line: 10590 Index: 0 - Error parsing "DesignSpecification:OutdoorAir". Error in following line.
   ** Severe  ** ~~~   Yes,                                    !- Demand Controlled Ventilation Typ
   ** Severe  ** Line: 10590 Index: 5 - "Yes" is not a valid Object Type.
   ** Severe  ** Line: 10864 Index: 0 - Object contains more field values than maximum number of IDD fields and is not extensible.
   ** Severe  ** Line: 10864 Index: 0 - Error parsing "DesignSpecification:OutdoorAir". Error in following line.
   ** Severe  ** ~~~   Yes,                                    !- Demand Controlled Ventilation Typ
   ** Severe  ** Line: 10864 Index: 5 - "Yes" is not a valid Object Type.
   ** Severe  ** Line: 11138 Index: 0 - Object contains more field values than maximum number of IDD fields and is not extensible.
   ** Severe  ** Line: 11138 Index: 0 - Error parsing "DesignSpecification:OutdoorAir". Error in following line.
   ** Severe  ** ~~~   Yes,                                    !- Demand Controlled Ventilation Typ
   ** Severe  ** Line: 11138 Index: 5 - "Yes" is not a valid Object Type.
   ** Severe  ** Line: 11412 Index: 0 - Object contains more field values than maximum number of IDD fields and is not extensible.
   ** Severe  ** Line: 11412 Index: 0 - Error parsing "DesignSpecification:OutdoorAir". Error in following line.
   ** Severe  ** ~~~   Yes,                                    !- Demand Controlled Ventilation Typ
   ** Severe  ** Line: 11412 Index: 5 - "Yes" is not a valid Object Type.
   ** Severe  ** Line: 11686 Index: 0 - Object contains more field values than maximum number of IDD fields and is not extensible.
   ** Severe  ** Line: 11686 Index: 0 - Error parsing "DesignSpecification:OutdoorAir". Error in following line.
   ** Severe  ** ~~~   Yes,                                    !- Demand Controlled Ventilation Typ
   ** Severe  ** Line: 11686 Index: 5 - "Yes" is not a valid Object Type.
   ** Severe  ** Line: 11960 Index: 0 - Object contains more field values than maximum number of IDD fields and is not extensible.
   ** Severe  ** Line: 11960 Index: 0 - Error parsing "DesignSpecification:OutdoorAir". Error in following line.
   ** Severe  ** ~~~   Yes,                                    !- Demand Controlled Ventilation Typ
   ** Severe  ** Line: 11960 Index: 5 - "Yes" is not a valid Object Type.
   ** Severe  ** Line: 12121 Index: 16 - "Through: 12/31" is not a valid Object Type.
   ** Severe  ** Line: 12215 Index: 16 - "Through: 12/31" is not a valid Object Type.
   ** Severe  ** Line: 12285 Index: 16 - "Through: 12/31" is not a valid Object Type.
   ** Severe  ** Line: 12355 Index: 16 - "Through: 12/31" is not a valid Object Type.
   ** Severe  ** Line: 12449 Index: 16 - "Through: 12/31" is not a valid Object Type.
   ** Severe  ** Line: 12519 Index: 16 - "Through: 12/31" is not a valid Object Type.
   ** Severe  ** <root>[Controller:MechanicalVentilation][break_room_0_MechVent][demand_controlled_ventilation] - "Standard62.1VentilationRateProcedure" - Failed to match against any enum values.
   ** Severe  ** <root>[Controller:OutdoorAir][break_room_0_z2_OAController][economizer_control_action_type] - "MinimumLimit" - Failed to match against any enum values.
   ** Severe  ** <root>[Controller:OutdoorAir][break_room_0_z2_OAController][economizer_maximum_limit_dewpoint_temperature] - Value type "string" for input "DifferentialEnthalpy" not permitted by 'type' constraint.
   ** Severe  ** <root>[Controller:OutdoorAir][break_room_0_z2_OAController][lockout_type] - "66000" - Failed to match against any enum values.
   **  Fatal  ** Errors occurred on processing input file. Preceding condition(s) cause termination.
   ...Summary of Errors that led to program termination:
   ..... Reference severe error count=162
   ..... Last severe error=<root>[Controller:OutdoorAir][break_room_0_z2_OAController][lockout_type] - "66000" - Failed to match against any enum values.
   ************* Warning:  Node connection errors not checked - most system input has not been read (see previous warning).
   ************* Fatal error -- final processing.  Program exited before simulations began.  See previous error messages.
   ************* EnergyPlus Warmup Error Summary. During Warmup: 0 Warning; 0 Severe Errors.
   ************* EnergyPlus Sizing Error Summary. During Sizing: 0 Warning; 0 Severe Errors.
   ************* EnergyPlus Terminated--Fatal Error Detected. 0 Warning; 162 Severe Errors; Elapsed Time=00hr 00min  0.08sec
