Program Version,EnergyPlus, Version 24.2.0-94a887817b, YMD=2025.11.02 17:35
! This file shows details about the branches, nodes, and other
! elements of the flow connections.
! This file is intended for use in "debugging" potential problems
! that may also be detected by the program, but may be more easily
! identified by "eye".
! This file is also intended to support software which draws a
! schematic diagram of the HVAC system.
! ===============================================================
! #Nodes,<Number of Unique Nodes>
 #Nodes,2849
! <Node>,<NodeNumber>,<Node Name>,<Node Fluid Type>,<# Times Node Referenced After Definition>
 Node,1,LOBBY_0_Z1_ADUOUTLET,Air,4
 Node,2,OFFICE_PRIVATE_0_Z2_ADUOUTLET,Air,4
 Node,3,STORAGE_0_Z3_ADUOUTLET,Air,4
 Node,4,BREAK_ROOM_1_Z4_ADUOUTLET,Air,4
 Node,5,MECHANICAL_1_Z5_ADUOUTLET,Air,4
 Node,6,OFFICE_PRIVATE_2_Z6_ADUOUTLET,Air,4
 Node,7,MECHANICAL_3_Z7_ADUOUTLET,Air,4
 Node,8,STORAGE_3_Z8_ADUOUTLET,Air,4
 Node,9,OFFICE_PRIVATE_4_Z9_ADUOUTLET,Air,4
 Node,10,LOBBY_5_Z10_ADUOUTLET,Air,4
 Node,11,CONFERENCE_5_Z11_ADUOUTLET,Air,4
 Node,12,OFFICE_PRIVATE_5_Z12_ADUOUTLET,Air,4
 Node,13,LOBBY_6_Z13_ADUOUTLET,Air,4
 Node,14,MECHANICAL_6_Z14_ADUOUTLET,Air,4
 Node,15,STORAGE_6_Z15_ADUOUTLET,Air,4
 Node,16,OFFICE_OPEN_7_Z16_ADUOUTLET,Air,4
 Node,17,OFFICE_PRIVATE_7_Z17_ADUOUTLET,Air,4
 Node,18,LOBBY_8_Z18_ADUOUTLET,Air,4
 Node,19,CONFERENCE_8_Z19_ADUOUTLET,Air,4
 Node,20,BREAK_ROOM_8_Z20_ADUOUTLET,Air,4
 Node,21,STORAGE_8_Z21_ADUOUTLET,Air,4
 Node,22,MECHANICAL_9_Z22_ADUOUTLET,Air,4
 Node,23,STORAGE_9_Z23_ADUOUTLET,Air,4
 Node,24,LOBBY_10_Z24_ADUOUTLET,Air,4
 Node,25,CONFERENCE_10_Z25_ADUOUTLET,Air,4
 Node,26,LOBBY_11_Z26_ADUOUTLET,Air,4
 Node,27,BREAK_ROOM_11_Z27_ADUOUTLET,Air,4
 Node,28,MECHANICAL_11_Z28_ADUOUTLET,Air,4
 Node,29,OFFICE_PRIVATE_11_Z29_ADUOUTLET,Air,4
 Node,30,BREAK_ROOM_12_Z30_ADUOUTLET,Air,4
 Node,31,MECHANICAL_12_Z31_ADUOUTLET,Air,4
 Node,32,OFFICE_PRIVATE_12_Z32_ADUOUTLET,Air,4
 Node,33,MECHANICAL_13_Z33_ADUOUTLET,Air,4
 Node,34,OFFICE_PRIVATE_13_Z34_ADUOUTLET,Air,4
 Node,35,STORAGE_13_Z35_ADUOUTLET,Air,4
 Node,36,BREAK_ROOM_14_Z36_ADUOUTLET,Air,4
 Node,37,STORAGE_14_Z37_ADUOUTLET,Air,4
 Node,38,MECHANICAL_15_Z38_ADUOUTLET,Air,4
 Node,39,OFFICE_PRIVATE_15_Z39_ADUOUTLET,Air,4
 Node,40,STORAGE_15_Z40_ADUOUTLET,Air,4
 Node,41,OFFICE_PRIVATE_16_Z41_ADUOUTLET,Air,4
 Node,42,CONFERENCE_17_Z42_ADUOUTLET,Air,4
 Node,43,MECHANICAL_17_Z43_ADUOUTLET,Air,4
 Node,44,OFFICE_PRIVATE_17_Z44_ADUOUTLET,Air,4
 Node,45,STORAGE_17_Z45_ADUOUTLET,Air,4
 Node,46,LOBBY_18_Z46_ADUOUTLET,Air,4
 Node,47,MECHANICAL_18_Z47_ADUOUTLET,Air,4
 Node,48,OFFICE_PRIVATE_18_Z48_ADUOUTLET,Air,4
 Node,49,STORAGE_18_Z49_ADUOUTLET,Air,4
 Node,50,MECHANICAL_19_Z50_ADUOUTLET,Air,4
 Node,51,OFFICE_PRIVATE_19_Z51_ADUOUTLET,Air,4
 Node,52,STORAGE_19_Z52_ADUOUTLET,Air,4
 Node,53,CONFERENCE_20_Z53_ADUOUTLET,Air,4
 Node,54,BREAK_ROOM_21_Z54_ADUOUTLET,Air,4
 Node,55,MECHANICAL_21_Z55_ADUOUTLET,Air,4
 Node,56,LOBBY_22_Z56_ADUOUTLET,Air,4
 Node,57,BREAK_ROOM_22_Z57_ADUOUTLET,Air,4
 Node,58,OFFICE_PRIVATE_22_Z58_ADUOUTLET,Air,4
 Node,59,STORAGE_22_Z59_ADUOUTLET,Air,4
 Node,60,LOBBY_23_Z60_ADUOUTLET,Air,4
 Node,61,BREAK_ROOM_23_Z61_ADUOUTLET,Air,4
 Node,62,OFFICE_PRIVATE_23_Z62_ADUOUTLET,Air,4
 Node,63,STORAGE_23_Z63_ADUOUTLET,Air,4
 Node,64,MECHANICAL_24_Z64_ADUOUTLET,Air,4
 Node,65,OFFICE_PRIVATE_24_Z65_ADUOUTLET,Air,4
 Node,66,STORAGE_24_Z66_ADUOUTLET,Air,4
 Node,67,CONFERENCE_25_Z67_ADUOUTLET,Air,4
 Node,68,OFFICE_PRIVATE_25_Z68_ADUOUTLET,Air,4
 Node,69,CONFERENCE_26_Z69_ADUOUTLET,Air,4
 Node,70,MECHANICAL_26_Z70_ADUOUTLET,Air,4
 Node,71,STORAGE_26_Z71_ADUOUTLET,Air,4
 Node,72,MECHANICAL_27_Z72_ADUOUTLET,Air,4
 Node,73,OFFICE_PRIVATE_27_Z73_ADUOUTLET,Air,4
 Node,74,CONFERENCE_28_Z74_ADUOUTLET,Air,4
 Node,75,BREAK_ROOM_28_Z75_ADUOUTLET,Air,4
 Node,76,STORAGE_28_Z76_ADUOUTLET,Air,4
 Node,77,BREAK_ROOM_30_Z77_ADUOUTLET,Air,4
 Node,78,MECHANICAL_30_Z78_ADUOUTLET,Air,4
 Node,79,OFFICE_PRIVATE_30_Z79_ADUOUTLET,Air,4
 Node,80,CONFERENCE_31_Z80_ADUOUTLET,Air,4
 Node,81,OFFICE_PRIVATE_31_Z81_ADUOUTLET,Air,4
 Node,82,MECHANICAL_32_Z82_ADUOUTLET,Air,4
 Node,83,OFFICE_PRIVATE_33_Z83_ADUOUTLET,Air,4
 Node,84,STORAGE_33_Z84_ADUOUTLET,Air,4
 Node,85,BREAK_ROOM_34_Z85_ADUOUTLET,Air,4
 Node,86,OFFICE_PRIVATE_34_Z86_ADUOUTLET,Air,4
 Node,87,LOBBY_35_Z87_ADUOUTLET,Air,4
 Node,88,BREAK_ROOM_35_Z88_ADUOUTLET,Air,4
 Node,89,MECHANICAL_35_Z89_ADUOUTLET,Air,4
 Node,90,CONFERENCE_36_Z90_ADUOUTLET,Air,4
 Node,91,BREAK_ROOM_36_Z91_ADUOUTLET,Air,4
 Node,92,OFFICE_PRIVATE_36_Z92_ADUOUTLET,Air,4
 Node,93,STORAGE_36_Z93_ADUOUTLET,Air,4
 Node,94,CONFERENCE_37_Z94_ADUOUTLET,Air,4
 Node,95,BREAK_ROOM_37_Z95_ADUOUTLET,Air,4
 Node,96,LOBBY_38_Z96_ADUOUTLET,Air,4
 Node,97,MECHANICAL_38_Z97_ADUOUTLET,Air,4
 Node,98,OFFICE_PRIVATE_38_Z98_ADUOUTLET,Air,4
 Node,99,STORAGE_38_Z99_ADUOUTLET,Air,4
 Node,100,CONFERENCE_39_Z100_ADUOUTLET,Air,4
 Node,101,BREAK_ROOM_39_Z101_ADUOUTLET,Air,4
 Node,102,STORAGE_39_Z102_ADUOUTLET,Air,4
 Node,103,BREAK_ROOM_40_Z103_ADUOUTLET,Air,4
 Node,104,OFFICE_PRIVATE_40_Z104_ADUOUTLET,Air,4
 Node,105,STORAGE_40_Z105_ADUOUTLET,Air,4
 Node,106,LOBBY_41_Z106_ADUOUTLET,Air,4
 Node,107,BREAK_ROOM_41_Z107_ADUOUTLET,Air,4
 Node,108,STORAGE_41_Z108_ADUOUTLET,Air,4
 Node,109,LOBBY_42_Z109_ADUOUTLET,Air,4
 Node,110,MECHANICAL_42_Z110_ADUOUTLET,Air,4
 Node,111,OFFICE_PRIVATE_42_Z111_ADUOUTLET,Air,4
 Node,112,LOBBY_43_Z112_ADUOUTLET,Air,4
 Node,113,MECHANICAL_43_Z113_ADUOUTLET,Air,4
 Node,114,OFFICE_PRIVATE_43_Z114_ADUOUTLET,Air,4
 Node,115,BREAK_ROOM_44_Z115_ADUOUTLET,Air,4
 Node,116,OFFICE_PRIVATE_44_Z116_ADUOUTLET,Air,4
 Node,117,STORAGE_44_Z117_ADUOUTLET,Air,4
 Node,118,CONFERENCE_45_Z118_ADUOUTLET,Air,4
 Node,119,MECHANICAL_45_Z119_ADUOUTLET,Air,4
 Node,120,OFFICE_PRIVATE_45_Z120_ADUOUTLET,Air,4
 Node,121,LOBBY_46_Z121_ADUOUTLET,Air,4
 Node,122,CONFERENCE_46_Z122_ADUOUTLET,Air,4
 Node,123,OFFICE_PRIVATE_46_Z123_ADUOUTLET,Air,4
 Node,124,STORAGE_47_Z124_ADUOUTLET,Air,4
 Node,125,LOBBY_48_Z125_ADUOUTLET,Air,4
 Node,126,CONFERENCE_48_Z126_ADUOUTLET,Air,4
 Node,127,OFFICE_PRIVATE_48_Z127_ADUOUTLET,Air,4
 Node,128,BREAK_ROOM_49_Z128_ADUOUTLET,Air,4
 Node,129,MECHANICAL_49_Z129_ADUOUTLET,Air,4
 Node,130,CONFERENCE_50_Z130_ADUOUTLET,Air,4
 Node,131,MECHANICAL_50_Z131_ADUOUTLET,Air,4
 Node,132,BREAK_ROOM_51_Z132_ADUOUTLET,Air,4
 Node,133,MECHANICAL_51_Z133_ADUOUTLET,Air,4
 Node,134,OFFICE_PRIVATE_51_Z134_ADUOUTLET,Air,4
 Node,135,OFFICE_OPEN_52_Z135_ADUOUTLET,Air,4
 Node,136,OFFICE_PRIVATE_52_Z136_ADUOUTLET,Air,4
 Node,137,STORAGE_52_Z137_ADUOUTLET,Air,4
 Node,138,CONFERENCE_53_Z138_ADUOUTLET,Air,4
 Node,139,OFFICE_PRIVATE_53_Z139_ADUOUTLET,Air,4
 Node,140,BREAK_ROOM_54_Z140_ADUOUTLET,Air,4
 Node,141,OFFICE_OPEN_55_Z141_ADUOUTLET,Air,4
 Node,142,OFFICE_PRIVATE_55_Z142_ADUOUTLET,Air,4
 Node,143,LOBBY_56_Z143_ADUOUTLET,Air,4
 Node,144,CONFERENCE_56_Z144_ADUOUTLET,Air,4
 Node,145,BREAK_ROOM_56_Z145_ADUOUTLET,Air,4
 Node,146,OFFICE_PRIVATE_56_Z146_ADUOUTLET,Air,4
 Node,147,OFFICE_OPEN_57_Z147_ADUOUTLET,Air,4
 Node,148,STORAGE_57_Z148_ADUOUTLET,Air,4
 Node,149,CONFERENCE_58_Z149_ADUOUTLET,Air,4
 Node,150,MECHANICAL_58_Z150_ADUOUTLET,Air,4
 Node,151,OFFICE_PRIVATE_58_Z151_ADUOUTLET,Air,4
 Node,152,OFFICE_OPEN_59_Z152_ADUOUTLET,Air,4
 Node,153,OFFICE_PRIVATE_59_Z153_ADUOUTLET,Air,4
 Node,154,STORAGE_59_Z154_ADUOUTLET,Air,4
 Node,155,CONFERENCE_60_Z155_ADUOUTLET,Air,4
 Node,156,STORAGE_60_Z156_ADUOUTLET,Air,4
 Node,157,BREAK_ROOM_61_Z157_ADUOUTLET,Air,4
 Node,158,BREAK_ROOM_62_Z158_ADUOUTLET,Air,4
 Node,159,MECHANICAL_62_Z159_ADUOUTLET,Air,4
 Node,160,STORAGE_62_Z160_ADUOUTLET,Air,4
 Node,161,OFFICE_OPEN_63_Z161_ADUOUTLET,Air,4
 Node,162,OFFICE_PRIVATE_63_Z162_ADUOUTLET,Air,4
 Node,163,CONFERENCE_64_Z163_ADUOUTLET,Air,4
 Node,164,BREAK_ROOM_64_Z164_ADUOUTLET,Air,4
 Node,165,LOBBY_65_Z165_ADUOUTLET,Air,4
 Node,166,STORAGE_65_Z166_ADUOUTLET,Air,4
 Node,167,MECHANICAL_66_Z167_ADUOUTLET,Air,4
 Node,168,CONFERENCE_67_Z168_ADUOUTLET,Air,4
 Node,169,BREAK_ROOM_67_Z169_ADUOUTLET,Air,4
 Node,170,STORAGE_67_Z170_ADUOUTLET,Air,4
 Node,171,CONFERENCE_68_Z171_ADUOUTLET,Air,4
 Node,172,BREAK_ROOM_68_Z172_ADUOUTLET,Air,4
 Node,173,STORAGE_68_Z173_ADUOUTLET,Air,4
 Node,174,CONFERENCE_69_Z174_ADUOUTLET,Air,4
 Node,175,MECHANICAL_69_Z175_ADUOUTLET,Air,4
 Node,176,OFFICE_PRIVATE_69_Z176_ADUOUTLET,Air,4
 Node,177,STORAGE_69_Z177_ADUOUTLET,Air,4
 Node,178,LOBBY_70_Z178_ADUOUTLET,Air,4
 Node,179,BREAK_ROOM_70_Z179_ADUOUTLET,Air,4
 Node,180,MECHANICAL_70_Z180_ADUOUTLET,Air,4
 Node,181,OFFICE_PRIVATE_70_Z181_ADUOUTLET,Air,4
 Node,182,STORAGE_70_Z182_ADUOUTLET,Air,4
 Node,183,CONFERENCE_71_Z183_ADUOUTLET,Air,4
 Node,184,OFFICE_PRIVATE_71_Z184_ADUOUTLET,Air,4
 Node,185,OFFICE_PRIVATE_72_Z185_ADUOUTLET,Air,4
 Node,186,CONFERENCE_73_Z186_ADUOUTLET,Air,4
 Node,187,STORAGE_73_Z187_ADUOUTLET,Air,4
 Node,188,LOBBY_74_Z188_ADUOUTLET,Air,4
 Node,189,CONFERENCE_74_Z189_ADUOUTLET,Air,4
 Node,190,MECHANICAL_74_Z190_ADUOUTLET,Air,4
 Node,191,STORAGE_74_Z191_ADUOUTLET,Air,4
 Node,192,MECHANICAL_75_Z192_ADUOUTLET,Air,4
 Node,193,STORAGE_75_Z193_ADUOUTLET,Air,4
 Node,194,STORAGE_76_Z194_ADUOUTLET,Air,4
 Node,195,LOBBY_77_Z195_ADUOUTLET,Air,4
 Node,196,CONFERENCE_77_Z196_ADUOUTLET,Air,4
 Node,197,BREAK_ROOM_77_Z197_ADUOUTLET,Air,4
 Node,198,STORAGE_77_Z198_ADUOUTLET,Air,4
 Node,199,CONFERENCE_78_Z199_ADUOUTLET,Air,4
 Node,200,CONFERENCE_79_Z200_ADUOUTLET,Air,4
 Node,201,BREAK_ROOM_79_Z201_ADUOUTLET,Air,4
 Node,202,STORAGE_79_Z202_ADUOUTLET,Air,4
 Node,203,CONFERENCE_80_Z203_ADUOUTLET,Air,4
 Node,204,BREAK_ROOM_80_Z204_ADUOUTLET,Air,4
 Node,205,OFFICE_PRIVATE_80_Z205_ADUOUTLET,Air,4
 Node,206,LOBBY_81_Z206_ADUOUTLET,Air,4
 Node,207,OFFICE_PRIVATE_81_Z207_ADUOUTLET,Air,4
 Node,208,CONFERENCE_82_Z208_ADUOUTLET,Air,4
 Node,209,OFFICE_PRIVATE_82_Z209_ADUOUTLET,Air,4
 Node,210,LOBBY_83_Z210_ADUOUTLET,Air,4
 Node,211,OFFICE_PRIVATE_83_Z211_ADUOUTLET,Air,4
 Node,212,STORAGE_83_Z212_ADUOUTLET,Air,4
 Node,213,LOBBY_84_Z213_ADUOUTLET,Air,4
 Node,214,CONFERENCE_84_Z214_ADUOUTLET,Air,4
 Node,215,OFFICE_PRIVATE_84_Z215_ADUOUTLET,Air,4
 Node,216,CONFERENCE_85_Z216_ADUOUTLET,Air,4
 Node,217,MECHANICAL_85_Z217_ADUOUTLET,Air,4
 Node,218,OFFICE_PRIVATE_85_Z218_ADUOUTLET,Air,4
 Node,219,CONFERENCE_86_Z219_ADUOUTLET,Air,4
 Node,220,BREAK_ROOM_86_Z220_ADUOUTLET,Air,4
 Node,221,OFFICE_PRIVATE_86_Z221_ADUOUTLET,Air,4
 Node,222,STORAGE_86_Z222_ADUOUTLET,Air,4
 Node,223,CONFERENCE_87_Z223_ADUOUTLET,Air,4
 Node,224,BREAK_ROOM_87_Z224_ADUOUTLET,Air,4
 Node,225,MECHANICAL_87_Z225_ADUOUTLET,Air,4
 Node,226,OFFICE_PRIVATE_87_Z226_ADUOUTLET,Air,4
 Node,227,STORAGE_87_Z227_ADUOUTLET,Air,4
 Node,228,BREAK_ROOM_88_Z228_ADUOUTLET,Air,4
 Node,229,OFFICE_PRIVATE_88_Z229_ADUOUTLET,Air,4
 Node,230,MECHANICAL_89_Z230_ADUOUTLET,Air,4
 Node,231,OFFICE_PRIVATE_89_Z231_ADUOUTLET,Air,4
 Node,232,CONFERENCE_90_Z232_ADUOUTLET,Air,4
 Node,233,BREAK_ROOM_90_Z233_ADUOUTLET,Air,4
 Node,234,OFFICE_OPEN_91_Z234_ADUOUTLET,Air,4
 Node,235,OFFICE_PRIVATE_91_Z235_ADUOUTLET,Air,4
 Node,236,CONFERENCE_92_Z236_ADUOUTLET,Air,4
 Node,237,BREAK_ROOM_92_Z237_ADUOUTLET,Air,4
 Node,238,MECHANICAL_92_Z238_ADUOUTLET,Air,4
 Node,239,OFFICE_PRIVATE_92_Z239_ADUOUTLET,Air,4
 Node,240,OFFICE_PRIVATE_93_Z240_ADUOUTLET,Air,4
 Node,241,STORAGE_93_Z241_ADUOUTLET,Air,4
 Node,242,CONFERENCE_94_Z242_ADUOUTLET,Air,4
 Node,243,BREAK_ROOM_94_Z243_ADUOUTLET,Air,4
 Node,244,MECHANICAL_94_Z244_ADUOUTLET,Air,4
 Node,245,OFFICE_PRIVATE_94_Z245_ADUOUTLET,Air,4
 Node,246,STORAGE_94_Z246_ADUOUTLET,Air,4
 Node,247,MECHANICAL_95_Z247_ADUOUTLET,Air,4
 Node,248,OFFICE_PRIVATE_95_Z248_ADUOUTLET,Air,4
 Node,249,OFFICE_PRIVATE_96_Z249_ADUOUTLET,Air,4
 Node,250,STORAGE_96_Z250_ADUOUTLET,Air,4
 Node,251,CONFERENCE_97_Z251_ADUOUTLET,Air,4
 Node,252,BREAK_ROOM_97_Z252_ADUOUTLET,Air,4
 Node,253,MECHANICAL_97_Z253_ADUOUTLET,Air,4
 Node,254,STORAGE_97_Z254_ADUOUTLET,Air,4
 Node,255,BREAK_ROOM_98_Z255_ADUOUTLET,Air,4
 Node,256,STORAGE_98_Z256_ADUOUTLET,Air,4
 Node,257,BREAK_ROOM_99_Z257_ADUOUTLET,Air,4
 Node,258,OFFICE_PRIVATE_99_Z258_ADUOUTLET,Air,4
 Node,259,STORAGE_99_Z259_ADUOUTLET,Air,4
 Node,260,LOBBY_0_Z1_SUPPLYINLET,Air,3
 Node,261,LOBBY_0_Z1_COOLC-HEATCNODE,Air,6
 Node,262,LOBBY_0_Z1_HEATC-FANNODE,Air,5
 Node,263,LOBBY_0_Z1_SUPPLYEQUIPMENTOUTLETNODE,Air,3
 Node,264,OFFICE_PRIVATE_0_Z2_SUPPLYINLET,Air,3
 Node,265,OFFICE_PRIVATE_0_Z2_COOLC-HEATCNODE,Air,6
 Node,266,OFFICE_PRIVATE_0_Z2_HEATC-FANNODE,Air,5
 Node,267,OFFICE_PRIVATE_0_Z2_SUPPLYEQUIPMENTOUTLETNODE,Air,3
 Node,268,STORAGE_0_Z3_SUPPLYINLET,Air,3
 Node,269,STORAGE_0_Z3_COOLC-HEATCNODE,Air,6
 Node,270,STORAGE_0_Z3_HEATC-FANNODE,Air,5
 Node,271,STORAGE_0_Z3_SUPPLYEQUIPMENTOUTLETNODE,Air,3
 Node,272,BREAK_ROOM_1_Z4_SUPPLYINLET,Air,3
 Node,273,BREAK_ROOM_1_Z4_COOLC-HEATCNODE,Air,6
 Node,274,BREAK_ROOM_1_Z4_HEATC-FANNODE,Air,5
 Node,275,BREAK_ROOM_1_Z4_SUPPLYEQUIPMENTOUTLETNODE,Air,3
 Node,276,MECHANICAL_1_Z5_SUPPLYINLET,Air,3
 Node,277,MECHANICAL_1_Z5_COOLC-HEATCNODE,Air,6
 Node,278,MECHANICAL_1_Z5_HEATC-FANNODE,Air,5
 Node,279,MECHANICAL_1_Z5_SUPPLYEQUIPMENTOUTLETNODE,Air,3
 Node,280,OFFICE_PRIVATE_2_Z6_SUPPLYINLET,Air,3
 Node,281,OFFICE_PRIVATE_2_Z6_COOLC-HEATCNODE,Air,6
 Node,282,OFFICE_PRIVATE_2_Z6_HEATC-FANNODE,Air,5
 Node,283,OFFICE_PRIVATE_2_Z6_SUPPLYEQUIPMENTOUTLETNODE,Air,3
 Node,284,MECHANICAL_3_Z7_SUPPLYINLET,Air,3
 Node,285,MECHANICAL_3_Z7_COOLC-HEATCNODE,Air,6
 Node,286,MECHANICAL_3_Z7_HEATC-FANNODE,Air,5
 Node,287,MECHANICAL_3_Z7_SUPPLYEQUIPMENTOUTLETNODE,Air,3
 Node,288,STORAGE_3_Z8_SUPPLYINLET,Air,3
 Node,289,STORAGE_3_Z8_COOLC-HEATCNODE,Air,6
 Node,290,STORAGE_3_Z8_HEATC-FANNODE,Air,5
 Node,291,STORAGE_3_Z8_SUPPLYEQUIPMENTOUTLETNODE,Air,3
 Node,292,OFFICE_PRIVATE_4_Z9_SUPPLYINLET,Air,3
 Node,293,OFFICE_PRIVATE_4_Z9_COOLC-HEATCNODE,Air,6
 Node,294,OFFICE_PRIVATE_4_Z9_HEATC-FANNODE,Air,5
 Node,295,OFFICE_PRIVATE_4_Z9_SUPPLYEQUIPMENTOUTLETNODE,Air,3
 Node,296,LOBBY_5_Z10_SUPPLYINLET,Air,3
 Node,297,LOBBY_5_Z10_COOLC-HEATCNODE,Air,6
 Node,298,LOBBY_5_Z10_HEATC-FANNODE,Air,5
 Node,299,LOBBY_5_Z10_SUPPLYEQUIPMENTOUTLETNODE,Air,3
 Node,300,CONFERENCE_5_Z11_SUPPLYINLET,Air,3
 Node,301,CONFERENCE_5_Z11_COOLC-HEATCNODE,Air,6
 Node,302,CONFERENCE_5_Z11_HEATC-FANNODE,Air,5
 Node,303,CONFERENCE_5_Z11_SUPPLYEQUIPMENTOUTLETNODE,Air,3
 Node,304,OFFICE_PRIVATE_5_Z12_SUPPLYINLET,Air,3
 Node,305,OFFICE_PRIVATE_5_Z12_COOLC-HEATCNODE,Air,6
 Node,306,OFFICE_PRIVATE_5_Z12_HEATC-FANNODE,Air,5
 Node,307,OFFICE_PRIVATE_5_Z12_SUPPLYEQUIPMENTOUTLETNODE,Air,3
 Node,308,LOBBY_6_Z13_SUPPLYINLET,Air,3
 Node,309,LOBBY_6_Z13_COOLC-HEATCNODE,Air,6
 Node,310,LOBBY_6_Z13_HEATC-FANNODE,Air,5
 Node,311,LOBBY_6_Z13_SUPPLYEQUIPMENTOUTLETNODE,Air,3
 Node,312,MECHANICAL_6_Z14_SUPPLYINLET,Air,3
 Node,313,MECHANICAL_6_Z14_COOLC-HEATCNODE,Air,6
 Node,314,MECHANICAL_6_Z14_HEATC-FANNODE,Air,5
 Node,315,MECHANICAL_6_Z14_SUPPLYEQUIPMENTOUTLETNODE,Air,3
 Node,316,STORAGE_6_Z15_SUPPLYINLET,Air,3
 Node,317,STORAGE_6_Z15_COOLC-HEATCNODE,Air,6
 Node,318,STORAGE_6_Z15_HEATC-FANNODE,Air,5
 Node,319,STORAGE_6_Z15_SUPPLYEQUIPMENTOUTLETNODE,Air,3
 Node,320,OFFICE_OPEN_7_Z16_SUPPLYINLET,Air,3
 Node,321,OFFICE_OPEN_7_Z16_COOLC-HEATCNODE,Air,6
 Node,322,OFFICE_OPEN_7_Z16_HEATC-FANNODE,Air,5
 Node,323,OFFICE_OPEN_7_Z16_SUPPLYEQUIPMENTOUTLETNODE,Air,3
 Node,324,OFFICE_PRIVATE_7_Z17_SUPPLYINLET,Air,3
 Node,325,OFFICE_PRIVATE_7_Z17_COOLC-HEATCNODE,Air,6
 Node,326,OFFICE_PRIVATE_7_Z17_HEATC-FANNODE,Air,5
 Node,327,OFFICE_PRIVATE_7_Z17_SUPPLYEQUIPMENTOUTLETNODE,Air,3
 Node,328,LOBBY_8_Z18_SUPPLYINLET,Air,3
 Node,329,LOBBY_8_Z18_COOLC-HEATCNODE,Air,6
 Node,330,LOBBY_8_Z18_HEATC-FANNODE,Air,5
 Node,331,LOBBY_8_Z18_SUPPLYEQUIPMENTOUTLETNODE,Air,3
 Node,332,CONFERENCE_8_Z19_SUPPLYINLET,Air,3
 Node,333,CONFERENCE_8_Z19_COOLC-HEATCNODE,Air,6
 Node,334,CONFERENCE_8_Z19_HEATC-FANNODE,Air,5
 Node,335,CONFERENCE_8_Z19_SUPPLYEQUIPMENTOUTLETNODE,Air,3
 Node,336,BREAK_ROOM_8_Z20_SUPPLYINLET,Air,3
 Node,337,BREAK_ROOM_8_Z20_COOLC-HEATCNODE,Air,6
 Node,338,BREAK_ROOM_8_Z20_HEATC-FANNODE,Air,5
 Node,339,BREAK_ROOM_8_Z20_SUPPLYEQUIPMENTOUTLETNODE,Air,3
 Node,340,STORAGE_8_Z21_SUPPLYINLET,Air,3
 Node,341,STORAGE_8_Z21_COOLC-HEATCNODE,Air,6
 Node,342,STORAGE_8_Z21_HEATC-FANNODE,Air,5
 Node,343,STORAGE_8_Z21_SUPPLYEQUIPMENTOUTLETNODE,Air,3
 Node,344,MECHANICAL_9_Z22_SUPPLYINLET,Air,3
 Node,345,MECHANICAL_9_Z22_COOLC-HEATCNODE,Air,6
 Node,346,MECHANICAL_9_Z22_HEATC-FANNODE,Air,5
 Node,347,MECHANICAL_9_Z22_SUPPLYEQUIPMENTOUTLETNODE,Air,3
 Node,348,STORAGE_9_Z23_SUPPLYINLET,Air,3
 Node,349,STORAGE_9_Z23_COOLC-HEATCNODE,Air,6
 Node,350,STORAGE_9_Z23_HEATC-FANNODE,Air,5
 Node,351,STORAGE_9_Z23_SUPPLYEQUIPMENTOUTLETNODE,Air,3
 Node,352,LOBBY_10_Z24_SUPPLYINLET,Air,3
 Node,353,LOBBY_10_Z24_COOLC-HEATCNODE,Air,6
 Node,354,LOBBY_10_Z24_HEATC-FANNODE,Air,5
 Node,355,LOBBY_10_Z24_SUPPLYEQUIPMENTOUTLETNODE,Air,3
 Node,356,CONFERENCE_10_Z25_SUPPLYINLET,Air,3
 Node,357,CONFERENCE_10_Z25_COOLC-HEATCNODE,Air,6
 Node,358,CONFERENCE_10_Z25_HEATC-FANNODE,Air,5
 Node,359,CONFERENCE_10_Z25_SUPPLYEQUIPMENTOUTLETNODE,Air,3
 Node,360,LOBBY_11_Z26_SUPPLYINLET,Air,3
 Node,361,LOBBY_11_Z26_COOLC-HEATCNODE,Air,6
 Node,362,LOBBY_11_Z26_HEATC-FANNODE,Air,5
 Node,363,LOBBY_11_Z26_SUPPLYEQUIPMENTOUTLETNODE,Air,3
 Node,364,BREAK_ROOM_11_Z27_SUPPLYINLET,Air,3
 Node,365,BREAK_ROOM_11_Z27_COOLC-HEATCNODE,Air,6
 Node,366,BREAK_ROOM_11_Z27_HEATC-FANNODE,Air,5
 Node,367,BREAK_ROOM_11_Z27_SUPPLYEQUIPMENTOUTLETNODE,Air,3
 Node,368,MECHANICAL_11_Z28_SUPPLYINLET,Air,3
 Node,369,MECHANICAL_11_Z28_COOLC-HEATCNODE,Air,6
 Node,370,MECHANICAL_11_Z28_HEATC-FANNODE,Air,5
 Node,371,MECHANICAL_11_Z28_SUPPLYEQUIPMENTOUTLETNODE,Air,3
 Node,372,OFFICE_PRIVATE_11_Z29_SUPPLYINLET,Air,3
 Node,373,OFFICE_PRIVATE_11_Z29_COOLC-HEATCNODE,Air,6
 Node,374,OFFICE_PRIVATE_11_Z29_HEATC-FANNODE,Air,5
 Node,375,OFFICE_PRIVATE_11_Z29_SUPPLYEQUIPMENTOUTLETNODE,Air,3
 Node,376,BREAK_ROOM_12_Z30_SUPPLYINLET,Air,3
 Node,377,BREAK_ROOM_12_Z30_COOLC-HEATCNODE,Air,6
 Node,378,BREAK_ROOM_12_Z30_HEATC-FANNODE,Air,5
 Node,379,BREAK_ROOM_12_Z30_SUPPLYEQUIPMENTOUTLETNODE,Air,3
 Node,380,MECHANICAL_12_Z31_SUPPLYINLET,Air,3
 Node,381,MECHANICAL_12_Z31_COOLC-HEATCNODE,Air,6
 Node,382,MECHANICAL_12_Z31_HEATC-FANNODE,Air,5
 Node,383,MECHANICAL_12_Z31_SUPPLYEQUIPMENTOUTLETNODE,Air,3
 Node,384,OFFICE_PRIVATE_12_Z32_SUPPLYINLET,Air,3
 Node,385,OFFICE_PRIVATE_12_Z32_COOLC-HEATCNODE,Air,6
 Node,386,OFFICE_PRIVATE_12_Z32_HEATC-FANNODE,Air,5
 Node,387,OFFICE_PRIVATE_12_Z32_SUPPLYEQUIPMENTOUTLETNODE,Air,3
 Node,388,MECHANICAL_13_Z33_SUPPLYINLET,Air,3
 Node,389,MECHANICAL_13_Z33_COOLC-HEATCNODE,Air,6
 Node,390,MECHANICAL_13_Z33_HEATC-FANNODE,Air,5
 Node,391,MECHANICAL_13_Z33_SUPPLYEQUIPMENTOUTLETNODE,Air,3
 Node,392,OFFICE_PRIVATE_13_Z34_SUPPLYINLET,Air,3
 Node,393,OFFICE_PRIVATE_13_Z34_COOLC-HEATCNODE,Air,6
 Node,394,OFFICE_PRIVATE_13_Z34_HEATC-FANNODE,Air,5
 Node,395,OFFICE_PRIVATE_13_Z34_SUPPLYEQUIPMENTOUTLETNODE,Air,3
 Node,396,STORAGE_13_Z35_SUPPLYINLET,Air,3
 Node,397,STORAGE_13_Z35_COOLC-HEATCNODE,Air,6
 Node,398,STORAGE_13_Z35_HEATC-FANNODE,Air,5
 Node,399,STORAGE_13_Z35_SUPPLYEQUIPMENTOUTLETNODE,Air,3
 Node,400,BREAK_ROOM_14_Z36_SUPPLYINLET,Air,3
 Node,401,BREAK_ROOM_14_Z36_COOLC-HEATCNODE,Air,6
 Node,402,BREAK_ROOM_14_Z36_HEATC-FANNODE,Air,5
 Node,403,BREAK_ROOM_14_Z36_SUPPLYEQUIPMENTOUTLETNODE,Air,3
 Node,404,STORAGE_14_Z37_SUPPLYINLET,Air,3
 Node,405,STORAGE_14_Z37_COOLC-HEATCNODE,Air,6
 Node,406,STORAGE_14_Z37_HEATC-FANNODE,Air,5
 Node,407,STORAGE_14_Z37_SUPPLYEQUIPMENTOUTLETNODE,Air,3
 Node,408,MECHANICAL_15_Z38_SUPPLYINLET,Air,3
 Node,409,MECHANICAL_15_Z38_COOLC-HEATCNODE,Air,6
 Node,410,MECHANICAL_15_Z38_HEATC-FANNODE,Air,5
 Node,411,MECHANICAL_15_Z38_SUPPLYEQUIPMENTOUTLETNODE,Air,3
 Node,412,OFFICE_PRIVATE_15_Z39_SUPPLYINLET,Air,3
 Node,413,OFFICE_PRIVATE_15_Z39_COOLC-HEATCNODE,Air,6
 Node,414,OFFICE_PRIVATE_15_Z39_HEATC-FANNODE,Air,5
 Node,415,OFFICE_PRIVATE_15_Z39_SUPPLYEQUIPMENTOUTLETNODE,Air,3
 Node,416,STORAGE_15_Z40_SUPPLYINLET,Air,3
 Node,417,STORAGE_15_Z40_COOLC-HEATCNODE,Air,6
 Node,418,STORAGE_15_Z40_HEATC-FANNODE,Air,5
 Node,419,STORAGE_15_Z40_SUPPLYEQUIPMENTOUTLETNODE,Air,3
 Node,420,OFFICE_PRIVATE_16_Z41_SUPPLYINLET,Air,3
 Node,421,OFFICE_PRIVATE_16_Z41_COOLC-HEATCNODE,Air,6
 Node,422,OFFICE_PRIVATE_16_Z41_HEATC-FANNODE,Air,5
 Node,423,OFFICE_PRIVATE_16_Z41_SUPPLYEQUIPMENTOUTLETNODE,Air,3
 Node,424,CONFERENCE_17_Z42_SUPPLYINLET,Air,3
 Node,425,CONFERENCE_17_Z42_COOLC-HEATCNODE,Air,6
 Node,426,CONFERENCE_17_Z42_HEATC-FANNODE,Air,5
 Node,427,CONFERENCE_17_Z42_SUPPLYEQUIPMENTOUTLETNODE,Air,3
 Node,428,MECHANICAL_17_Z43_SUPPLYINLET,Air,3
 Node,429,MECHANICAL_17_Z43_COOLC-HEATCNODE,Air,6
 Node,430,MECHANICAL_17_Z43_HEATC-FANNODE,Air,5
 Node,431,MECHANICAL_17_Z43_SUPPLYEQUIPMENTOUTLETNODE,Air,3
 Node,432,OFFICE_PRIVATE_17_Z44_SUPPLYINLET,Air,3
 Node,433,OFFICE_PRIVATE_17_Z44_COOLC-HEATCNODE,Air,6
 Node,434,OFFICE_PRIVATE_17_Z44_HEATC-FANNODE,Air,5
 Node,435,OFFICE_PRIVATE_17_Z44_SUPPLYEQUIPMENTOUTLETNODE,Air,3
 Node,436,STORAGE_17_Z45_SUPPLYINLET,Air,3
 Node,437,STORAGE_17_Z45_COOLC-HEATCNODE,Air,6
 Node,438,STORAGE_17_Z45_HEATC-FANNODE,Air,5
 Node,439,STORAGE_17_Z45_SUPPLYEQUIPMENTOUTLETNODE,Air,3
 Node,440,LOBBY_18_Z46_SUPPLYINLET,Air,3
 Node,441,LOBBY_18_Z46_COOLC-HEATCNODE,Air,6
 Node,442,LOBBY_18_Z46_HEATC-FANNODE,Air,5
 Node,443,LOBBY_18_Z46_SUPPLYEQUIPMENTOUTLETNODE,Air,3
 Node,444,MECHANICAL_18_Z47_SUPPLYINLET,Air,3
 Node,445,MECHANICAL_18_Z47_COOLC-HEATCNODE,Air,6
 Node,446,MECHANICAL_18_Z47_HEATC-FANNODE,Air,5
 Node,447,MECHANICAL_18_Z47_SUPPLYEQUIPMENTOUTLETNODE,Air,3
 Node,448,OFFICE_PRIVATE_18_Z48_SUPPLYINLET,Air,3
 Node,449,OFFICE_PRIVATE_18_Z48_COOLC-HEATCNODE,Air,6
 Node,450,OFFICE_PRIVATE_18_Z48_HEATC-FANNODE,Air,5
 Node,451,OFFICE_PRIVATE_18_Z48_SUPPLYEQUIPMENTOUTLETNODE,Air,3
 Node,452,STORAGE_18_Z49_SUPPLYINLET,Air,3
 Node,453,STORAGE_18_Z49_COOLC-HEATCNODE,Air,6
 Node,454,STORAGE_18_Z49_HEATC-FANNODE,Air,5
 Node,455,STORAGE_18_Z49_SUPPLYEQUIPMENTOUTLETNODE,Air,3
 Node,456,MECHANICAL_19_Z50_SUPPLYINLET,Air,3
 Node,457,MECHANICAL_19_Z50_COOLC-HEATCNODE,Air,6
 Node,458,MECHANICAL_19_Z50_HEATC-FANNODE,Air,5
 Node,459,MECHANICAL_19_Z50_SUPPLYEQUIPMENTOUTLETNODE,Air,3
 Node,460,OFFICE_PRIVATE_19_Z51_SUPPLYINLET,Air,3
 Node,461,OFFICE_PRIVATE_19_Z51_COOLC-HEATCNODE,Air,6
 Node,462,OFFICE_PRIVATE_19_Z51_HEATC-FANNODE,Air,5
 Node,463,OFFICE_PRIVATE_19_Z51_SUPPLYEQUIPMENTOUTLETNODE,Air,3
 Node,464,STORAGE_19_Z52_SUPPLYINLET,Air,3
 Node,465,STORAGE_19_Z52_COOLC-HEATCNODE,Air,6
 Node,466,STORAGE_19_Z52_HEATC-FANNODE,Air,5
 Node,467,STORAGE_19_Z52_SUPPLYEQUIPMENTOUTLETNODE,Air,3
 Node,468,CONFERENCE_20_Z53_SUPPLYINLET,Air,3
 Node,469,CONFERENCE_20_Z53_COOLC-HEATCNODE,Air,6
 Node,470,CONFERENCE_20_Z53_HEATC-FANNODE,Air,5
 Node,471,CONFERENCE_20_Z53_SUPPLYEQUIPMENTOUTLETNODE,Air,3
 Node,472,BREAK_ROOM_21_Z54_SUPPLYINLET,Air,3
 Node,473,BREAK_ROOM_21_Z54_COOLC-HEATCNODE,Air,6
 Node,474,BREAK_ROOM_21_Z54_HEATC-FANNODE,Air,5
 Node,475,BREAK_ROOM_21_Z54_SUPPLYEQUIPMENTOUTLETNODE,Air,3
 Node,476,MECHANICAL_21_Z55_SUPPLYINLET,Air,3
 Node,477,MECHANICAL_21_Z55_COOLC-HEATCNODE,Air,6
 Node,478,MECHANICAL_21_Z55_HEATC-FANNODE,Air,5
 Node,479,MECHANICAL_21_Z55_SUPPLYEQUIPMENTOUTLETNODE,Air,3
 Node,480,LOBBY_22_Z56_SUPPLYINLET,Air,3
 Node,481,LOBBY_22_Z56_COOLC-HEATCNODE,Air,6
 Node,482,LOBBY_22_Z56_HEATC-FANNODE,Air,5
 Node,483,LOBBY_22_Z56_SUPPLYEQUIPMENTOUTLETNODE,Air,3
 Node,484,BREAK_ROOM_22_Z57_SUPPLYINLET,Air,3
 Node,485,BREAK_ROOM_22_Z57_COOLC-HEATCNODE,Air,6
 Node,486,BREAK_ROOM_22_Z57_HEATC-FANNODE,Air,5
 Node,487,BREAK_ROOM_22_Z57_SUPPLYEQUIPMENTOUTLETNODE,Air,3
 Node,488,OFFICE_PRIVATE_22_Z58_SUPPLYINLET,Air,3
 Node,489,OFFICE_PRIVATE_22_Z58_COOLC-HEATCNODE,Air,6
 Node,490,OFFICE_PRIVATE_22_Z58_HEATC-FANNODE,Air,5
 Node,491,OFFICE_PRIVATE_22_Z58_SUPPLYEQUIPMENTOUTLETNODE,Air,3
 Node,492,STORAGE_22_Z59_SUPPLYINLET,Air,3
 Node,493,STORAGE_22_Z59_COOLC-HEATCNODE,Air,6
 Node,494,STORAGE_22_Z59_HEATC-FANNODE,Air,5
 Node,495,STORAGE_22_Z59_SUPPLYEQUIPMENTOUTLETNODE,Air,3
 Node,496,LOBBY_23_Z60_SUPPLYINLET,Air,3
 Node,497,LOBBY_23_Z60_COOLC-HEATCNODE,Air,6
 Node,498,LOBBY_23_Z60_HEATC-FANNODE,Air,5
 Node,499,LOBBY_23_Z60_SUPPLYEQUIPMENTOUTLETNODE,Air,3
 Node,500,BREAK_ROOM_23_Z61_SUPPLYINLET,Air,3
 Node,501,BREAK_ROOM_23_Z61_COOLC-HEATCNODE,Air,6
 Node,502,BREAK_ROOM_23_Z61_HEATC-FANNODE,Air,5
 Node,503,BREAK_ROOM_23_Z61_SUPPLYEQUIPMENTOUTLETNODE,Air,3
 Node,504,OFFICE_PRIVATE_23_Z62_SUPPLYINLET,Air,3
 Node,505,OFFICE_PRIVATE_23_Z62_COOLC-HEATCNODE,Air,6
 Node,506,OFFICE_PRIVATE_23_Z62_HEATC-FANNODE,Air,5
 Node,507,OFFICE_PRIVATE_23_Z62_SUPPLYEQUIPMENTOUTLETNODE,Air,3
 Node,508,STORAGE_23_Z63_SUPPLYINLET,Air,3
 Node,509,STORAGE_23_Z63_COOLC-HEATCNODE,Air,6
 Node,510,STORAGE_23_Z63_HEATC-FANNODE,Air,5
 Node,511,STORAGE_23_Z63_SUPPLYEQUIPMENTOUTLETNODE,Air,3
 Node,512,MECHANICAL_24_Z64_SUPPLYINLET,Air,3
 Node,513,MECHANICAL_24_Z64_COOLC-HEATCNODE,Air,6
 Node,514,MECHANICAL_24_Z64_HEATC-FANNODE,Air,5
 Node,515,MECHANICAL_24_Z64_SUPPLYEQUIPMENTOUTLETNODE,Air,3
 Node,516,OFFICE_PRIVATE_24_Z65_SUPPLYINLET,Air,3
 Node,517,OFFICE_PRIVATE_24_Z65_COOLC-HEATCNODE,Air,6
 Node,518,OFFICE_PRIVATE_24_Z65_HEATC-FANNODE,Air,5
 Node,519,OFFICE_PRIVATE_24_Z65_SUPPLYEQUIPMENTOUTLETNODE,Air,3
 Node,520,STORAGE_24_Z66_SUPPLYINLET,Air,3
 Node,521,STORAGE_24_Z66_COOLC-HEATCNODE,Air,6
 Node,522,STORAGE_24_Z66_HEATC-FANNODE,Air,5
 Node,523,STORAGE_24_Z66_SUPPLYEQUIPMENTOUTLETNODE,Air,3
 Node,524,CONFERENCE_25_Z67_SUPPLYINLET,Air,3
 Node,525,CONFERENCE_25_Z67_COOLC-HEATCNODE,Air,6
 Node,526,CONFERENCE_25_Z67_HEATC-FANNODE,Air,5
 Node,527,CONFERENCE_25_Z67_SUPPLYEQUIPMENTOUTLETNODE,Air,3
 Node,528,OFFICE_PRIVATE_25_Z68_SUPPLYINLET,Air,3
 Node,529,OFFICE_PRIVATE_25_Z68_COOLC-HEATCNODE,Air,6
 Node,530,OFFICE_PRIVATE_25_Z68_HEATC-FANNODE,Air,5
 Node,531,OFFICE_PRIVATE_25_Z68_SUPPLYEQUIPMENTOUTLETNODE,Air,3
 Node,532,CONFERENCE_26_Z69_SUPPLYINLET,Air,3
 Node,533,CONFERENCE_26_Z69_COOLC-HEATCNODE,Air,6
 Node,534,CONFERENCE_26_Z69_HEATC-FANNODE,Air,5
 Node,535,CONFERENCE_26_Z69_SUPPLYEQUIPMENTOUTLETNODE,Air,3
 Node,536,MECHANICAL_26_Z70_SUPPLYINLET,Air,3
 Node,537,MECHANICAL_26_Z70_COOLC-HEATCNODE,Air,6
 Node,538,MECHANICAL_26_Z70_HEATC-FANNODE,Air,5
 Node,539,MECHANICAL_26_Z70_SUPPLYEQUIPMENTOUTLETNODE,Air,3
 Node,540,STORAGE_26_Z71_SUPPLYINLET,Air,3
 Node,541,STORAGE_26_Z71_COOLC-HEATCNODE,Air,6
 Node,542,STORAGE_26_Z71_HEATC-FANNODE,Air,5
 Node,543,STORAGE_26_Z71_SUPPLYEQUIPMENTOUTLETNODE,Air,3
 Node,544,MECHANICAL_27_Z72_SUPPLYINLET,Air,3
 Node,545,MECHANICAL_27_Z72_COOLC-HEATCNODE,Air,6
 Node,546,MECHANICAL_27_Z72_HEATC-FANNODE,Air,5
 Node,547,MECHANICAL_27_Z72_SUPPLYEQUIPMENTOUTLETNODE,Air,3
 Node,548,OFFICE_PRIVATE_27_Z73_SUPPLYINLET,Air,3
 Node,549,OFFICE_PRIVATE_27_Z73_COOLC-HEATCNODE,Air,6
 Node,550,OFFICE_PRIVATE_27_Z73_HEATC-FANNODE,Air,5
 Node,551,OFFICE_PRIVATE_27_Z73_SUPPLYEQUIPMENTOUTLETNODE,Air,3
 Node,552,CONFERENCE_28_Z74_SUPPLYINLET,Air,3
 Node,553,CONFERENCE_28_Z74_COOLC-HEATCNODE,Air,6
 Node,554,CONFERENCE_28_Z74_HEATC-FANNODE,Air,5
 Node,555,CONFERENCE_28_Z74_SUPPLYEQUIPMENTOUTLETNODE,Air,3
 Node,556,BREAK_ROOM_28_Z75_SUPPLYINLET,Air,3
 Node,557,BREAK_ROOM_28_Z75_COOLC-HEATCNODE,Air,6
 Node,558,BREAK_ROOM_28_Z75_HEATC-FANNODE,Air,5
 Node,559,BREAK_ROOM_28_Z75_SUPPLYEQUIPMENTOUTLETNODE,Air,3
 Node,560,STORAGE_28_Z76_SUPPLYINLET,Air,3
 Node,561,STORAGE_28_Z76_COOLC-HEATCNODE,Air,6
 Node,562,STORAGE_28_Z76_HEATC-FANNODE,Air,5
 Node,563,STORAGE_28_Z76_SUPPLYEQUIPMENTOUTLETNODE,Air,3
 Node,564,BREAK_ROOM_30_Z77_SUPPLYINLET,Air,3
 Node,565,BREAK_ROOM_30_Z77_COOLC-HEATCNODE,Air,6
 Node,566,BREAK_ROOM_30_Z77_HEATC-FANNODE,Air,5
 Node,567,BREAK_ROOM_30_Z77_SUPPLYEQUIPMENTOUTLETNODE,Air,3
 Node,568,MECHANICAL_30_Z78_SUPPLYINLET,Air,3
 Node,569,MECHANICAL_30_Z78_COOLC-HEATCNODE,Air,6
 Node,570,MECHANICAL_30_Z78_HEATC-FANNODE,Air,5
 Node,571,MECHANICAL_30_Z78_SUPPLYEQUIPMENTOUTLETNODE,Air,3
 Node,572,OFFICE_PRIVATE_30_Z79_SUPPLYINLET,Air,3
 Node,573,OFFICE_PRIVATE_30_Z79_COOLC-HEATCNODE,Air,6
 Node,574,OFFICE_PRIVATE_30_Z79_HEATC-FANNODE,Air,5
 Node,575,OFFICE_PRIVATE_30_Z79_SUPPLYEQUIPMENTOUTLETNODE,Air,3
 Node,576,CONFERENCE_31_Z80_SUPPLYINLET,Air,3
 Node,577,CONFERENCE_31_Z80_COOLC-HEATCNODE,Air,6
 Node,578,CONFERENCE_31_Z80_HEATC-FANNODE,Air,5
 Node,579,CONFERENCE_31_Z80_SUPPLYEQUIPMENTOUTLETNODE,Air,3
 Node,580,OFFICE_PRIVATE_31_Z81_SUPPLYINLET,Air,3
 Node,581,OFFICE_PRIVATE_31_Z81_COOLC-HEATCNODE,Air,6
 Node,582,OFFICE_PRIVATE_31_Z81_HEATC-FANNODE,Air,5
 Node,583,OFFICE_PRIVATE_31_Z81_SUPPLYEQUIPMENTOUTLETNODE,Air,3
 Node,584,MECHANICAL_32_Z82_SUPPLYINLET,Air,3
 Node,585,MECHANICAL_32_Z82_COOLC-HEATCNODE,Air,6
 Node,586,MECHANICAL_32_Z82_HEATC-FANNODE,Air,5
 Node,587,MECHANICAL_32_Z82_SUPPLYEQUIPMENTOUTLETNODE,Air,3
 Node,588,OFFICE_PRIVATE_33_Z83_SUPPLYINLET,Air,3
 Node,589,OFFICE_PRIVATE_33_Z83_COOLC-HEATCNODE,Air,6
 Node,590,OFFICE_PRIVATE_33_Z83_HEATC-FANNODE,Air,5
 Node,591,OFFICE_PRIVATE_33_Z83_SUPPLYEQUIPMENTOUTLETNODE,Air,3
 Node,592,STORAGE_33_Z84_SUPPLYINLET,Air,3
 Node,593,STORAGE_33_Z84_COOLC-HEATCNODE,Air,6
 Node,594,STORAGE_33_Z84_HEATC-FANNODE,Air,5
 Node,595,STORAGE_33_Z84_SUPPLYEQUIPMENTOUTLETNODE,Air,3
 Node,596,BREAK_ROOM_34_Z85_SUPPLYINLET,Air,3
 Node,597,BREAK_ROOM_34_Z85_COOLC-HEATCNODE,Air,6
 Node,598,BREAK_ROOM_34_Z85_HEATC-FANNODE,Air,5
 Node,599,BREAK_ROOM_34_Z85_SUPPLYEQUIPMENTOUTLETNODE,Air,3
 Node,600,OFFICE_PRIVATE_34_Z86_SUPPLYINLET,Air,3
 Node,601,OFFICE_PRIVATE_34_Z86_COOLC-HEATCNODE,Air,6
 Node,602,OFFICE_PRIVATE_34_Z86_HEATC-FANNODE,Air,5
 Node,603,OFFICE_PRIVATE_34_Z86_SUPPLYEQUIPMENTOUTLETNODE,Air,3
 Node,604,LOBBY_35_Z87_SUPPLYINLET,Air,3
 Node,605,LOBBY_35_Z87_COOLC-HEATCNODE,Air,6
 Node,606,LOBBY_35_Z87_HEATC-FANNODE,Air,5
 Node,607,LOBBY_35_Z87_SUPPLYEQUIPMENTOUTLETNODE,Air,3
 Node,608,BREAK_ROOM_35_Z88_SUPPLYINLET,Air,3
 Node,609,BREAK_ROOM_35_Z88_COOLC-HEATCNODE,Air,6
 Node,610,BREAK_ROOM_35_Z88_HEATC-FANNODE,Air,5
 Node,611,BREAK_ROOM_35_Z88_SUPPLYEQUIPMENTOUTLETNODE,Air,3
 Node,612,MECHANICAL_35_Z89_SUPPLYINLET,Air,3
 Node,613,MECHANICAL_35_Z89_COOLC-HEATCNODE,Air,6
 Node,614,MECHANICAL_35_Z89_HEATC-FANNODE,Air,5
 Node,615,MECHANICAL_35_Z89_SUPPLYEQUIPMENTOUTLETNODE,Air,3
 Node,616,CONFERENCE_36_Z90_SUPPLYINLET,Air,3
 Node,617,CONFERENCE_36_Z90_COOLC-HEATCNODE,Air,6
 Node,618,CONFERENCE_36_Z90_HEATC-FANNODE,Air,5
 Node,619,CONFERENCE_36_Z90_SUPPLYEQUIPMENTOUTLETNODE,Air,3
 Node,620,BREAK_ROOM_36_Z91_SUPPLYINLET,Air,3
 Node,621,BREAK_ROOM_36_Z91_COOLC-HEATCNODE,Air,6
 Node,622,BREAK_ROOM_36_Z91_HEATC-FANNODE,Air,5
 Node,623,BREAK_ROOM_36_Z91_SUPPLYEQUIPMENTOUTLETNODE,Air,3
 Node,624,OFFICE_PRIVATE_36_Z92_SUPPLYINLET,Air,3
 Node,625,OFFICE_PRIVATE_36_Z92_COOLC-HEATCNODE,Air,6
 Node,626,OFFICE_PRIVATE_36_Z92_HEATC-FANNODE,Air,5
 Node,627,OFFICE_PRIVATE_36_Z92_SUPPLYEQUIPMENTOUTLETNODE,Air,3
 Node,628,STORAGE_36_Z93_SUPPLYINLET,Air,3
 Node,629,STORAGE_36_Z93_COOLC-HEATCNODE,Air,6
 Node,630,STORAGE_36_Z93_HEATC-FANNODE,Air,5
 Node,631,STORAGE_36_Z93_SUPPLYEQUIPMENTOUTLETNODE,Air,3
 Node,632,CONFERENCE_37_Z94_SUPPLYINLET,Air,3
 Node,633,CONFERENCE_37_Z94_COOLC-HEATCNODE,Air,6
 Node,634,CONFERENCE_37_Z94_HEATC-FANNODE,Air,5
 Node,635,CONFERENCE_37_Z94_SUPPLYEQUIPMENTOUTLETNODE,Air,3
 Node,636,BREAK_ROOM_37_Z95_SUPPLYINLET,Air,3
 Node,637,BREAK_ROOM_37_Z95_COOLC-HEATCNODE,Air,6
 Node,638,BREAK_ROOM_37_Z95_HEATC-FANNODE,Air,5
 Node,639,BREAK_ROOM_37_Z95_SUPPLYEQUIPMENTOUTLETNODE,Air,3
 Node,640,LOBBY_38_Z96_SUPPLYINLET,Air,3
 Node,641,LOBBY_38_Z96_COOLC-HEATCNODE,Air,6
 Node,642,LOBBY_38_Z96_HEATC-FANNODE,Air,5
 Node,643,LOBBY_38_Z96_SUPPLYEQUIPMENTOUTLETNODE,Air,3
 Node,644,MECHANICAL_38_Z97_SUPPLYINLET,Air,3
 Node,645,MECHANICAL_38_Z97_COOLC-HEATCNODE,Air,6
 Node,646,MECHANICAL_38_Z97_HEATC-FANNODE,Air,5
 Node,647,MECHANICAL_38_Z97_SUPPLYEQUIPMENTOUTLETNODE,Air,3
 Node,648,OFFICE_PRIVATE_38_Z98_SUPPLYINLET,Air,3
 Node,649,OFFICE_PRIVATE_38_Z98_COOLC-HEATCNODE,Air,6
 Node,650,OFFICE_PRIVATE_38_Z98_HEATC-FANNODE,Air,5
 Node,651,OFFICE_PRIVATE_38_Z98_SUPPLYEQUIPMENTOUTLETNODE,Air,3
 Node,652,STORAGE_38_Z99_SUPPLYINLET,Air,3
 Node,653,STORAGE_38_Z99_COOLC-HEATCNODE,Air,6
 Node,654,STORAGE_38_Z99_HEATC-FANNODE,Air,5
 Node,655,STORAGE_38_Z99_SUPPLYEQUIPMENTOUTLETNODE,Air,3
 Node,656,CONFERENCE_39_Z100_SUPPLYINLET,Air,3
 Node,657,CONFERENCE_39_Z100_COOLC-HEATCNODE,Air,6
 Node,658,CONFERENCE_39_Z100_HEATC-FANNODE,Air,5
 Node,659,CONFERENCE_39_Z100_SUPPLYEQUIPMENTOUTLETNODE,Air,3
 Node,660,BREAK_ROOM_39_Z101_SUPPLYINLET,Air,3
 Node,661,BREAK_ROOM_39_Z101_COOLC-HEATCNODE,Air,6
 Node,662,BREAK_ROOM_39_Z101_HEATC-FANNODE,Air,5
 Node,663,BREAK_ROOM_39_Z101_SUPPLYEQUIPMENTOUTLETNODE,Air,3
 Node,664,STORAGE_39_Z102_SUPPLYINLET,Air,3
 Node,665,STORAGE_39_Z102_COOLC-HEATCNODE,Air,6
 Node,666,STORAGE_39_Z102_HEATC-FANNODE,Air,5
 Node,667,STORAGE_39_Z102_SUPPLYEQUIPMENTOUTLETNODE,Air,3
 Node,668,BREAK_ROOM_40_Z103_SUPPLYINLET,Air,3
 Node,669,BREAK_ROOM_40_Z103_COOLC-HEATCNODE,Air,6
 Node,670,BREAK_ROOM_40_Z103_HEATC-FANNODE,Air,5
 Node,671,BREAK_ROOM_40_Z103_SUPPLYEQUIPMENTOUTLETNODE,Air,3
 Node,672,OFFICE_PRIVATE_40_Z104_SUPPLYINLET,Air,3
 Node,673,OFFICE_PRIVATE_40_Z104_COOLC-HEATCNODE,Air,6
 Node,674,OFFICE_PRIVATE_40_Z104_HEATC-FANNODE,Air,5
 Node,675,OFFICE_PRIVATE_40_Z104_SUPPLYEQUIPMENTOUTLETNODE,Air,3
 Node,676,STORAGE_40_Z105_SUPPLYINLET,Air,3
 Node,677,STORAGE_40_Z105_COOLC-HEATCNODE,Air,6
 Node,678,STORAGE_40_Z105_HEATC-FANNODE,Air,5
 Node,679,STORAGE_40_Z105_SUPPLYEQUIPMENTOUTLETNODE,Air,3
 Node,680,LOBBY_41_Z106_SUPPLYINLET,Air,3
 Node,681,LOBBY_41_Z106_COOLC-HEATCNODE,Air,6
 Node,682,LOBBY_41_Z106_HEATC-FANNODE,Air,5
 Node,683,LOBBY_41_Z106_SUPPLYEQUIPMENTOUTLETNODE,Air,3
 Node,684,BREAK_ROOM_41_Z107_SUPPLYINLET,Air,3
 Node,685,BREAK_ROOM_41_Z107_COOLC-HEATCNODE,Air,6
 Node,686,BREAK_ROOM_41_Z107_HEATC-FANNODE,Air,5
 Node,687,BREAK_ROOM_41_Z107_SUPPLYEQUIPMENTOUTLETNODE,Air,3
 Node,688,STORAGE_41_Z108_SUPPLYINLET,Air,3
 Node,689,STORAGE_41_Z108_COOLC-HEATCNODE,Air,6
 Node,690,STORAGE_41_Z108_HEATC-FANNODE,Air,5
 Node,691,STORAGE_41_Z108_SUPPLYEQUIPMENTOUTLETNODE,Air,3
 Node,692,LOBBY_42_Z109_SUPPLYINLET,Air,3
 Node,693,LOBBY_42_Z109_COOLC-HEATCNODE,Air,6
 Node,694,LOBBY_42_Z109_HEATC-FANNODE,Air,5
 Node,695,LOBBY_42_Z109_SUPPLYEQUIPMENTOUTLETNODE,Air,3
 Node,696,MECHANICAL_42_Z110_SUPPLYINLET,Air,3
 Node,697,MECHANICAL_42_Z110_COOLC-HEATCNODE,Air,6
 Node,698,MECHANICAL_42_Z110_HEATC-FANNODE,Air,5
 Node,699,MECHANICAL_42_Z110_SUPPLYEQUIPMENTOUTLETNODE,Air,3
 Node,700,OFFICE_PRIVATE_42_Z111_SUPPLYINLET,Air,3
 Node,701,OFFICE_PRIVATE_42_Z111_COOLC-HEATCNODE,Air,6
 Node,702,OFFICE_PRIVATE_42_Z111_HEATC-FANNODE,Air,5
 Node,703,OFFICE_PRIVATE_42_Z111_SUPPLYEQUIPMENTOUTLETNODE,Air,3
 Node,704,LOBBY_43_Z112_SUPPLYINLET,Air,3
 Node,705,LOBBY_43_Z112_COOLC-HEATCNODE,Air,6
 Node,706,LOBBY_43_Z112_HEATC-FANNODE,Air,5
 Node,707,LOBBY_43_Z112_SUPPLYEQUIPMENTOUTLETNODE,Air,3
 Node,708,MECHANICAL_43_Z113_SUPPLYINLET,Air,3
 Node,709,MECHANICAL_43_Z113_COOLC-HEATCNODE,Air,6
 Node,710,MECHANICAL_43_Z113_HEATC-FANNODE,Air,5
 Node,711,MECHANICAL_43_Z113_SUPPLYEQUIPMENTOUTLETNODE,Air,3
 Node,712,OFFICE_PRIVATE_43_Z114_SUPPLYINLET,Air,3
 Node,713,OFFICE_PRIVATE_43_Z114_COOLC-HEATCNODE,Air,6
 Node,714,OFFICE_PRIVATE_43_Z114_HEATC-FANNODE,Air,5
 Node,715,OFFICE_PRIVATE_43_Z114_SUPPLYEQUIPMENTOUTLETNODE,Air,3
 Node,716,BREAK_ROOM_44_Z115_SUPPLYINLET,Air,3
 Node,717,BREAK_ROOM_44_Z115_COOLC-HEATCNODE,Air,6
 Node,718,BREAK_ROOM_44_Z115_HEATC-FANNODE,Air,5
 Node,719,BREAK_ROOM_44_Z115_SUPPLYEQUIPMENTOUTLETNODE,Air,3
 Node,720,OFFICE_PRIVATE_44_Z116_SUPPLYINLET,Air,3
 Node,721,OFFICE_PRIVATE_44_Z116_COOLC-HEATCNODE,Air,6
 Node,722,OFFICE_PRIVATE_44_Z116_HEATC-FANNODE,Air,5
 Node,723,OFFICE_PRIVATE_44_Z116_SUPPLYEQUIPMENTOUTLETNODE,Air,3
 Node,724,STORAGE_44_Z117_SUPPLYINLET,Air,3
 Node,725,STORAGE_44_Z117_COOLC-HEATCNODE,Air,6
 Node,726,STORAGE_44_Z117_HEATC-FANNODE,Air,5
 Node,727,STORAGE_44_Z117_SUPPLYEQUIPMENTOUTLETNODE,Air,3
 Node,728,CONFERENCE_45_Z118_SUPPLYINLET,Air,3
 Node,729,CONFERENCE_45_Z118_COOLC-HEATCNODE,Air,6
 Node,730,CONFERENCE_45_Z118_HEATC-FANNODE,Air,5
 Node,731,CONFERENCE_45_Z118_SUPPLYEQUIPMENTOUTLETNODE,Air,3
 Node,732,MECHANICAL_45_Z119_SUPPLYINLET,Air,3
 Node,733,MECHANICAL_45_Z119_COOLC-HEATCNODE,Air,6
 Node,734,MECHANICAL_45_Z119_HEATC-FANNODE,Air,5
 Node,735,MECHANICAL_45_Z119_SUPPLYEQUIPMENTOUTLETNODE,Air,3
 Node,736,OFFICE_PRIVATE_45_Z120_SUPPLYINLET,Air,3
 Node,737,OFFICE_PRIVATE_45_Z120_COOLC-HEATCNODE,Air,6
 Node,738,OFFICE_PRIVATE_45_Z120_HEATC-FANNODE,Air,5
 Node,739,OFFICE_PRIVATE_45_Z120_SUPPLYEQUIPMENTOUTLETNODE,Air,3
 Node,740,LOBBY_46_Z121_SUPPLYINLET,Air,3
 Node,741,LOBBY_46_Z121_COOLC-HEATCNODE,Air,6
 Node,742,LOBBY_46_Z121_HEATC-FANNODE,Air,5
 Node,743,LOBBY_46_Z121_SUPPLYEQUIPMENTOUTLETNODE,Air,3
 Node,744,CONFERENCE_46_Z122_SUPPLYINLET,Air,3
 Node,745,CONFERENCE_46_Z122_COOLC-HEATCNODE,Air,6
 Node,746,CONFERENCE_46_Z122_HEATC-FANNODE,Air,5
 Node,747,CONFERENCE_46_Z122_SUPPLYEQUIPMENTOUTLETNODE,Air,3
 Node,748,OFFICE_PRIVATE_46_Z123_SUPPLYINLET,Air,3
 Node,749,OFFICE_PRIVATE_46_Z123_COOLC-HEATCNODE,Air,6
 Node,750,OFFICE_PRIVATE_46_Z123_HEATC-FANNODE,Air,5
 Node,751,OFFICE_PRIVATE_46_Z123_SUPPLYEQUIPMENTOUTLETNODE,Air,3
 Node,752,STORAGE_47_Z124_SUPPLYINLET,Air,3
 Node,753,STORAGE_47_Z124_COOLC-HEATCNODE,Air,6
 Node,754,STORAGE_47_Z124_HEATC-FANNODE,Air,5
 Node,755,STORAGE_47_Z124_SUPPLYEQUIPMENTOUTLETNODE,Air,3
 Node,756,LOBBY_48_Z125_SUPPLYINLET,Air,3
 Node,757,LOBBY_48_Z125_COOLC-HEATCNODE,Air,6
 Node,758,LOBBY_48_Z125_HEATC-FANNODE,Air,5
 Node,759,LOBBY_48_Z125_SUPPLYEQUIPMENTOUTLETNODE,Air,3
 Node,760,CONFERENCE_48_Z126_SUPPLYINLET,Air,3
 Node,761,CONFERENCE_48_Z126_COOLC-HEATCNODE,Air,6
 Node,762,CONFERENCE_48_Z126_HEATC-FANNODE,Air,5
 Node,763,CONFERENCE_48_Z126_SUPPLYEQUIPMENTOUTLETNODE,Air,3
 Node,764,OFFICE_PRIVATE_48_Z127_SUPPLYINLET,Air,3
 Node,765,OFFICE_PRIVATE_48_Z127_COOLC-HEATCNODE,Air,6
 Node,766,OFFICE_PRIVATE_48_Z127_HEATC-FANNODE,Air,5
 Node,767,OFFICE_PRIVATE_48_Z127_SUPPLYEQUIPMENTOUTLETNODE,Air,3
 Node,768,BREAK_ROOM_49_Z128_SUPPLYINLET,Air,3
 Node,769,BREAK_ROOM_49_Z128_COOLC-HEATCNODE,Air,6
 Node,770,BREAK_ROOM_49_Z128_HEATC-FANNODE,Air,5
 Node,771,BREAK_ROOM_49_Z128_SUPPLYEQUIPMENTOUTLETNODE,Air,3
 Node,772,MECHANICAL_49_Z129_SUPPLYINLET,Air,3
 Node,773,MECHANICAL_49_Z129_COOLC-HEATCNODE,Air,6
 Node,774,MECHANICAL_49_Z129_HEATC-FANNODE,Air,5
 Node,775,MECHANICAL_49_Z129_SUPPLYEQUIPMENTOUTLETNODE,Air,3
 Node,776,CONFERENCE_50_Z130_SUPPLYINLET,Air,3
 Node,777,CONFERENCE_50_Z130_COOLC-HEATCNODE,Air,6
 Node,778,CONFERENCE_50_Z130_HEATC-FANNODE,Air,5
 Node,779,CONFERENCE_50_Z130_SUPPLYEQUIPMENTOUTLETNODE,Air,3
 Node,780,MECHANICAL_50_Z131_SUPPLYINLET,Air,3
 Node,781,MECHANICAL_50_Z131_COOLC-HEATCNODE,Air,6
 Node,782,MECHANICAL_50_Z131_HEATC-FANNODE,Air,5
 Node,783,MECHANICAL_50_Z131_SUPPLYEQUIPMENTOUTLETNODE,Air,3
 Node,784,BREAK_ROOM_51_Z132_SUPPLYINLET,Air,3
 Node,785,BREAK_ROOM_51_Z132_COOLC-HEATCNODE,Air,6
 Node,786,BREAK_ROOM_51_Z132_HEATC-FANNODE,Air,5
 Node,787,BREAK_ROOM_51_Z132_SUPPLYEQUIPMENTOUTLETNODE,Air,3
 Node,788,MECHANICAL_51_Z133_SUPPLYINLET,Air,3
 Node,789,MECHANICAL_51_Z133_COOLC-HEATCNODE,Air,6
 Node,790,MECHANICAL_51_Z133_HEATC-FANNODE,Air,5
 Node,791,MECHANICAL_51_Z133_SUPPLYEQUIPMENTOUTLETNODE,Air,3
 Node,792,OFFICE_PRIVATE_51_Z134_SUPPLYINLET,Air,3
 Node,793,OFFICE_PRIVATE_51_Z134_COOLC-HEATCNODE,Air,6
 Node,794,OFFICE_PRIVATE_51_Z134_HEATC-FANNODE,Air,5
 Node,795,OFFICE_PRIVATE_51_Z134_SUPPLYEQUIPMENTOUTLETNODE,Air,3
 Node,796,OFFICE_OPEN_52_Z135_SUPPLYINLET,Air,3
 Node,797,OFFICE_OPEN_52_Z135_COOLC-HEATCNODE,Air,6
 Node,798,OFFICE_OPEN_52_Z135_HEATC-FANNODE,Air,5
 Node,799,OFFICE_OPEN_52_Z135_SUPPLYEQUIPMENTOUTLETNODE,Air,3
 Node,800,OFFICE_PRIVATE_52_Z136_SUPPLYINLET,Air,3
 Node,801,OFFICE_PRIVATE_52_Z136_COOLC-HEATCNODE,Air,6
 Node,802,OFFICE_PRIVATE_52_Z136_HEATC-FANNODE,Air,5
 Node,803,OFFICE_PRIVATE_52_Z136_SUPPLYEQUIPMENTOUTLETNODE,Air,3
 Node,804,STORAGE_52_Z137_SUPPLYINLET,Air,3
 Node,805,STORAGE_52_Z137_COOLC-HEATCNODE,Air,6
 Node,806,STORAGE_52_Z137_HEATC-FANNODE,Air,5
 Node,807,STORAGE_52_Z137_SUPPLYEQUIPMENTOUTLETNODE,Air,3
 Node,808,CONFERENCE_53_Z138_SUPPLYINLET,Air,3
 Node,809,CONFERENCE_53_Z138_COOLC-HEATCNODE,Air,6
 Node,810,CONFERENCE_53_Z138_HEATC-FANNODE,Air,5
 Node,811,CONFERENCE_53_Z138_SUPPLYEQUIPMENTOUTLETNODE,Air,3
 Node,812,OFFICE_PRIVATE_53_Z139_SUPPLYINLET,Air,3
 Node,813,OFFICE_PRIVATE_53_Z139_COOLC-HEATCNODE,Air,6
 Node,814,OFFICE_PRIVATE_53_Z139_HEATC-FANNODE,Air,5
 Node,815,OFFICE_PRIVATE_53_Z139_SUPPLYEQUIPMENTOUTLETNODE,Air,3
 Node,816,BREAK_ROOM_54_Z140_SUPPLYINLET,Air,3
 Node,817,BREAK_ROOM_54_Z140_COOLC-HEATCNODE,Air,6
 Node,818,BREAK_ROOM_54_Z140_HEATC-FANNODE,Air,5
 Node,819,BREAK_ROOM_54_Z140_SUPPLYEQUIPMENTOUTLETNODE,Air,3
 Node,820,OFFICE_OPEN_55_Z141_SUPPLYINLET,Air,3
 Node,821,OFFICE_OPEN_55_Z141_COOLC-HEATCNODE,Air,6
 Node,822,OFFICE_OPEN_55_Z141_HEATC-FANNODE,Air,5
 Node,823,OFFICE_OPEN_55_Z141_SUPPLYEQUIPMENTOUTLETNODE,Air,3
 Node,824,OFFICE_PRIVATE_55_Z142_SUPPLYINLET,Air,3
 Node,825,OFFICE_PRIVATE_55_Z142_COOLC-HEATCNODE,Air,6
 Node,826,OFFICE_PRIVATE_55_Z142_HEATC-FANNODE,Air,5
 Node,827,OFFICE_PRIVATE_55_Z142_SUPPLYEQUIPMENTOUTLETNODE,Air,3
 Node,828,LOBBY_56_Z143_SUPPLYINLET,Air,3
 Node,829,LOBBY_56_Z143_COOLC-HEATCNODE,Air,6
 Node,830,LOBBY_56_Z143_HEATC-FANNODE,Air,5
 Node,831,LOBBY_56_Z143_SUPPLYEQUIPMENTOUTLETNODE,Air,3
 Node,832,CONFERENCE_56_Z144_SUPPLYINLET,Air,3
 Node,833,CONFERENCE_56_Z144_COOLC-HEATCNODE,Air,6
 Node,834,CONFERENCE_56_Z144_HEATC-FANNODE,Air,5
 Node,835,CONFERENCE_56_Z144_SUPPLYEQUIPMENTOUTLETNODE,Air,3
 Node,836,BREAK_ROOM_56_Z145_SUPPLYINLET,Air,3
 Node,837,BREAK_ROOM_56_Z145_COOLC-HEATCNODE,Air,6
 Node,838,BREAK_ROOM_56_Z145_HEATC-FANNODE,Air,5
 Node,839,BREAK_ROOM_56_Z145_SUPPLYEQUIPMENTOUTLETNODE,Air,3
 Node,840,OFFICE_PRIVATE_56_Z146_SUPPLYINLET,Air,3
 Node,841,OFFICE_PRIVATE_56_Z146_COOLC-HEATCNODE,Air,6
 Node,842,OFFICE_PRIVATE_56_Z146_HEATC-FANNODE,Air,5
 Node,843,OFFICE_PRIVATE_56_Z146_SUPPLYEQUIPMENTOUTLETNODE,Air,3
 Node,844,OFFICE_OPEN_57_Z147_SUPPLYINLET,Air,3
 Node,845,OFFICE_OPEN_57_Z147_COOLC-HEATCNODE,Air,6
 Node,846,OFFICE_OPEN_57_Z147_HEATC-FANNODE,Air,5
 Node,847,OFFICE_OPEN_57_Z147_SUPPLYEQUIPMENTOUTLETNODE,Air,3
 Node,848,STORAGE_57_Z148_SUPPLYINLET,Air,3
 Node,849,STORAGE_57_Z148_COOLC-HEATCNODE,Air,6
 Node,850,STORAGE_57_Z148_HEATC-FANNODE,Air,5
 Node,851,STORAGE_57_Z148_SUPPLYEQUIPMENTOUTLETNODE,Air,3
 Node,852,CONFERENCE_58_Z149_SUPPLYINLET,Air,3
 Node,853,CONFERENCE_58_Z149_COOLC-HEATCNODE,Air,6
 Node,854,CONFERENCE_58_Z149_HEATC-FANNODE,Air,5
 Node,855,CONFERENCE_58_Z149_SUPPLYEQUIPMENTOUTLETNODE,Air,3
 Node,856,MECHANICAL_58_Z150_SUPPLYINLET,Air,3
 Node,857,MECHANICAL_58_Z150_COOLC-HEATCNODE,Air,6
 Node,858,MECHANICAL_58_Z150_HEATC-FANNODE,Air,5
 Node,859,MECHANICAL_58_Z150_SUPPLYEQUIPMENTOUTLETNODE,Air,3
 Node,860,OFFICE_PRIVATE_58_Z151_SUPPLYINLET,Air,3
 Node,861,OFFICE_PRIVATE_58_Z151_COOLC-HEATCNODE,Air,6
 Node,862,OFFICE_PRIVATE_58_Z151_HEATC-FANNODE,Air,5
 Node,863,OFFICE_PRIVATE_58_Z151_SUPPLYEQUIPMENTOUTLETNODE,Air,3
 Node,864,OFFICE_OPEN_59_Z152_SUPPLYINLET,Air,3
 Node,865,OFFICE_OPEN_59_Z152_COOLC-HEATCNODE,Air,6
 Node,866,OFFICE_OPEN_59_Z152_HEATC-FANNODE,Air,5
 Node,867,OFFICE_OPEN_59_Z152_SUPPLYEQUIPMENTOUTLETNODE,Air,3
 Node,868,OFFICE_PRIVATE_59_Z153_SUPPLYINLET,Air,3
 Node,869,OFFICE_PRIVATE_59_Z153_COOLC-HEATCNODE,Air,6
 Node,870,OFFICE_PRIVATE_59_Z153_HEATC-FANNODE,Air,5
 Node,871,OFFICE_PRIVATE_59_Z153_SUPPLYEQUIPMENTOUTLETNODE,Air,3
 Node,872,STORAGE_59_Z154_SUPPLYINLET,Air,3
 Node,873,STORAGE_59_Z154_COOLC-HEATCNODE,Air,6
 Node,874,STORAGE_59_Z154_HEATC-FANNODE,Air,5
 Node,875,STORAGE_59_Z154_SUPPLYEQUIPMENTOUTLETNODE,Air,3
 Node,876,CONFERENCE_60_Z155_SUPPLYINLET,Air,3
 Node,877,CONFERENCE_60_Z155_COOLC-HEATCNODE,Air,6
 Node,878,CONFERENCE_60_Z155_HEATC-FANNODE,Air,5
 Node,879,CONFERENCE_60_Z155_SUPPLYEQUIPMENTOUTLETNODE,Air,3
 Node,880,STORAGE_60_Z156_SUPPLYINLET,Air,3
 Node,881,STORAGE_60_Z156_COOLC-HEATCNODE,Air,6
 Node,882,STORAGE_60_Z156_HEATC-FANNODE,Air,5
 Node,883,STORAGE_60_Z156_SUPPLYEQUIPMENTOUTLETNODE,Air,3
 Node,884,BREAK_ROOM_61_Z157_SUPPLYINLET,Air,3
 Node,885,BREAK_ROOM_61_Z157_COOLC-HEATCNODE,Air,6
 Node,886,BREAK_ROOM_61_Z157_HEATC-FANNODE,Air,5
 Node,887,BREAK_ROOM_61_Z157_SUPPLYEQUIPMENTOUTLETNODE,Air,3
 Node,888,BREAK_ROOM_62_Z158_SUPPLYINLET,Air,3
 Node,889,BREAK_ROOM_62_Z158_COOLC-HEATCNODE,Air,6
 Node,890,BREAK_ROOM_62_Z158_HEATC-FANNODE,Air,5
 Node,891,BREAK_ROOM_62_Z158_SUPPLYEQUIPMENTOUTLETNODE,Air,3
 Node,892,MECHANICAL_62_Z159_SUPPLYINLET,Air,3
 Node,893,MECHANICAL_62_Z159_COOLC-HEATCNODE,Air,6
 Node,894,MECHANICAL_62_Z159_HEATC-FANNODE,Air,5
 Node,895,MECHANICAL_62_Z159_SUPPLYEQUIPMENTOUTLETNODE,Air,3
 Node,896,STORAGE_62_Z160_SUPPLYINLET,Air,3
 Node,897,STORAGE_62_Z160_COOLC-HEATCNODE,Air,6
 Node,898,STORAGE_62_Z160_HEATC-FANNODE,Air,5
 Node,899,STORAGE_62_Z160_SUPPLYEQUIPMENTOUTLETNODE,Air,3
 Node,900,OFFICE_OPEN_63_Z161_SUPPLYINLET,Air,3
 Node,901,OFFICE_OPEN_63_Z161_COOLC-HEATCNODE,Air,6
 Node,902,OFFICE_OPEN_63_Z161_HEATC-FANNODE,Air,5
 Node,903,OFFICE_OPEN_63_Z161_SUPPLYEQUIPMENTOUTLETNODE,Air,3
 Node,904,OFFICE_PRIVATE_63_Z162_SUPPLYINLET,Air,3
 Node,905,OFFICE_PRIVATE_63_Z162_COOLC-HEATCNODE,Air,6
 Node,906,OFFICE_PRIVATE_63_Z162_HEATC-FANNODE,Air,5
 Node,907,OFFICE_PRIVATE_63_Z162_SUPPLYEQUIPMENTOUTLETNODE,Air,3
 Node,908,CONFERENCE_64_Z163_SUPPLYINLET,Air,3
 Node,909,CONFERENCE_64_Z163_COOLC-HEATCNODE,Air,6
 Node,910,CONFERENCE_64_Z163_HEATC-FANNODE,Air,5
 Node,911,CONFERENCE_64_Z163_SUPPLYEQUIPMENTOUTLETNODE,Air,3
 Node,912,BREAK_ROOM_64_Z164_SUPPLYINLET,Air,3
 Node,913,BREAK_ROOM_64_Z164_COOLC-HEATCNODE,Air,6
 Node,914,BREAK_ROOM_64_Z164_HEATC-FANNODE,Air,5
 Node,915,BREAK_ROOM_64_Z164_SUPPLYEQUIPMENTOUTLETNODE,Air,3
 Node,916,LOBBY_65_Z165_SUPPLYINLET,Air,3
 Node,917,LOBBY_65_Z165_COOLC-HEATCNODE,Air,6
 Node,918,LOBBY_65_Z165_HEATC-FANNODE,Air,5
 Node,919,LOBBY_65_Z165_SUPPLYEQUIPMENTOUTLETNODE,Air,3
 Node,920,STORAGE_65_Z166_SUPPLYINLET,Air,3
 Node,921,STORAGE_65_Z166_COOLC-HEATCNODE,Air,6
 Node,922,STORAGE_65_Z166_HEATC-FANNODE,Air,5
 Node,923,STORAGE_65_Z166_SUPPLYEQUIPMENTOUTLETNODE,Air,3
 Node,924,MECHANICAL_66_Z167_SUPPLYINLET,Air,3
 Node,925,MECHANICAL_66_Z167_COOLC-HEATCNODE,Air,6
 Node,926,MECHANICAL_66_Z167_HEATC-FANNODE,Air,5
 Node,927,MECHANICAL_66_Z167_SUPPLYEQUIPMENTOUTLETNODE,Air,3
 Node,928,CONFERENCE_67_Z168_SUPPLYINLET,Air,3
 Node,929,CONFERENCE_67_Z168_COOLC-HEATCNODE,Air,6
 Node,930,CONFERENCE_67_Z168_HEATC-FANNODE,Air,5
 Node,931,CONFERENCE_67_Z168_SUPPLYEQUIPMENTOUTLETNODE,Air,3
 Node,932,BREAK_ROOM_67_Z169_SUPPLYINLET,Air,3
 Node,933,BREAK_ROOM_67_Z169_COOLC-HEATCNODE,Air,6
 Node,934,BREAK_ROOM_67_Z169_HEATC-FANNODE,Air,5
 Node,935,BREAK_ROOM_67_Z169_SUPPLYEQUIPMENTOUTLETNODE,Air,3
 Node,936,STORAGE_67_Z170_SUPPLYINLET,Air,3
 Node,937,STORAGE_67_Z170_COOLC-HEATCNODE,Air,6
 Node,938,STORAGE_67_Z170_HEATC-FANNODE,Air,5
 Node,939,STORAGE_67_Z170_SUPPLYEQUIPMENTOUTLETNODE,Air,3
 Node,940,CONFERENCE_68_Z171_SUPPLYINLET,Air,3
 Node,941,CONFERENCE_68_Z171_COOLC-HEATCNODE,Air,6
 Node,942,CONFERENCE_68_Z171_HEATC-FANNODE,Air,5
 Node,943,CONFERENCE_68_Z171_SUPPLYEQUIPMENTOUTLETNODE,Air,3
 Node,944,BREAK_ROOM_68_Z172_SUPPLYINLET,Air,3
 Node,945,BREAK_ROOM_68_Z172_COOLC-HEATCNODE,Air,6
 Node,946,BREAK_ROOM_68_Z172_HEATC-FANNODE,Air,5
 Node,947,BREAK_ROOM_68_Z172_SUPPLYEQUIPMENTOUTLETNODE,Air,3
 Node,948,STORAGE_68_Z173_SUPPLYINLET,Air,3
 Node,949,STORAGE_68_Z173_COOLC-HEATCNODE,Air,6
 Node,950,STORAGE_68_Z173_HEATC-FANNODE,Air,5
 Node,951,STORAGE_68_Z173_SUPPLYEQUIPMENTOUTLETNODE,Air,3
 Node,952,CONFERENCE_69_Z174_SUPPLYINLET,Air,3
 Node,953,CONFERENCE_69_Z174_COOLC-HEATCNODE,Air,6
 Node,954,CONFERENCE_69_Z174_HEATC-FANNODE,Air,5
 Node,955,CONFERENCE_69_Z174_SUPPLYEQUIPMENTOUTLETNODE,Air,3
 Node,956,MECHANICAL_69_Z175_SUPPLYINLET,Air,3
 Node,957,MECHANICAL_69_Z175_COOLC-HEATCNODE,Air,6
 Node,958,MECHANICAL_69_Z175_HEATC-FANNODE,Air,5
 Node,959,MECHANICAL_69_Z175_SUPPLYEQUIPMENTOUTLETNODE,Air,3
 Node,960,OFFICE_PRIVATE_69_Z176_SUPPLYINLET,Air,3
 Node,961,OFFICE_PRIVATE_69_Z176_COOLC-HEATCNODE,Air,6
 Node,962,OFFICE_PRIVATE_69_Z176_HEATC-FANNODE,Air,5
 Node,963,OFFICE_PRIVATE_69_Z176_SUPPLYEQUIPMENTOUTLETNODE,Air,3
 Node,964,STORAGE_69_Z177_SUPPLYINLET,Air,3
 Node,965,STORAGE_69_Z177_COOLC-HEATCNODE,Air,6
 Node,966,STORAGE_69_Z177_HEATC-FANNODE,Air,5
 Node,967,STORAGE_69_Z177_SUPPLYEQUIPMENTOUTLETNODE,Air,3
 Node,968,LOBBY_70_Z178_SUPPLYINLET,Air,3
 Node,969,LOBBY_70_Z178_COOLC-HEATCNODE,Air,6
 Node,970,LOBBY_70_Z178_HEATC-FANNODE,Air,5
 Node,971,LOBBY_70_Z178_SUPPLYEQUIPMENTOUTLETNODE,Air,3
 Node,972,BREAK_ROOM_70_Z179_SUPPLYINLET,Air,3
 Node,973,BREAK_ROOM_70_Z179_COOLC-HEATCNODE,Air,6
 Node,974,BREAK_ROOM_70_Z179_HEATC-FANNODE,Air,5
 Node,975,BREAK_ROOM_70_Z179_SUPPLYEQUIPMENTOUTLETNODE,Air,3
 Node,976,MECHANICAL_70_Z180_SUPPLYINLET,Air,3
 Node,977,MECHANICAL_70_Z180_COOLC-HEATCNODE,Air,6
 Node,978,MECHANICAL_70_Z180_HEATC-FANNODE,Air,5
 Node,979,MECHANICAL_70_Z180_SUPPLYEQUIPMENTOUTLETNODE,Air,3
 Node,980,OFFICE_PRIVATE_70_Z181_SUPPLYINLET,Air,3
 Node,981,OFFICE_PRIVATE_70_Z181_COOLC-HEATCNODE,Air,6
 Node,982,OFFICE_PRIVATE_70_Z181_HEATC-FANNODE,Air,5
 Node,983,OFFICE_PRIVATE_70_Z181_SUPPLYEQUIPMENTOUTLETNODE,Air,3
 Node,984,STORAGE_70_Z182_SUPPLYINLET,Air,3
 Node,985,STORAGE_70_Z182_COOLC-HEATCNODE,Air,6
 Node,986,STORAGE_70_Z182_HEATC-FANNODE,Air,5
 Node,987,STORAGE_70_Z182_SUPPLYEQUIPMENTOUTLETNODE,Air,3
 Node,988,CONFERENCE_71_Z183_SUPPLYINLET,Air,3
 Node,989,CONFERENCE_71_Z183_COOLC-HEATCNODE,Air,6
 Node,990,CONFERENCE_71_Z183_HEATC-FANNODE,Air,5
 Node,991,CONFERENCE_71_Z183_SUPPLYEQUIPMENTOUTLETNODE,Air,3
 Node,992,OFFICE_PRIVATE_71_Z184_SUPPLYINLET,Air,3
 Node,993,OFFICE_PRIVATE_71_Z184_COOLC-HEATCNODE,Air,6
 Node,994,OFFICE_PRIVATE_71_Z184_HEATC-FANNODE,Air,5
 Node,995,OFFICE_PRIVATE_71_Z184_SUPPLYEQUIPMENTOUTLETNODE,Air,3
 Node,996,OFFICE_PRIVATE_72_Z185_SUPPLYINLET,Air,3
 Node,997,OFFICE_PRIVATE_72_Z185_COOLC-HEATCNODE,Air,6
 Node,998,OFFICE_PRIVATE_72_Z185_HEATC-FANNODE,Air,5
 Node,999,OFFICE_PRIVATE_72_Z185_SUPPLYEQUIPMENTOUTLETNODE,Air,3
 Node,1000,CONFERENCE_73_Z186_SUPPLYINLET,Air,3
 Node,1001,CONFERENCE_73_Z186_COOLC-HEATCNODE,Air,6
 Node,1002,CONFERENCE_73_Z186_HEATC-FANNODE,Air,5
 Node,1003,CONFERENCE_73_Z186_SUPPLYEQUIPMENTOUTLETNODE,Air,3
 Node,1004,STORAGE_73_Z187_SUPPLYINLET,Air,3
 Node,1005,STORAGE_73_Z187_COOLC-HEATCNODE,Air,6
 Node,1006,STORAGE_73_Z187_HEATC-FANNODE,Air,5
 Node,1007,STORAGE_73_Z187_SUPPLYEQUIPMENTOUTLETNODE,Air,3
 Node,1008,LOBBY_74_Z188_SUPPLYINLET,Air,3
 Node,1009,LOBBY_74_Z188_COOLC-HEATCNODE,Air,6
 Node,1010,LOBBY_74_Z188_HEATC-FANNODE,Air,5
 Node,1011,LOBBY_74_Z188_SUPPLYEQUIPMENTOUTLETNODE,Air,3
 Node,1012,CONFERENCE_74_Z189_SUPPLYINLET,Air,3
 Node,1013,CONFERENCE_74_Z189_COOLC-HEATCNODE,Air,6
 Node,1014,CONFERENCE_74_Z189_HEATC-FANNODE,Air,5
 Node,1015,CONFERENCE_74_Z189_SUPPLYEQUIPMENTOUTLETNODE,Air,3
 Node,1016,MECHANICAL_74_Z190_SUPPLYINLET,Air,3
 Node,1017,MECHANICAL_74_Z190_COOLC-HEATCNODE,Air,6
 Node,1018,MECHANICAL_74_Z190_HEATC-FANNODE,Air,5
 Node,1019,MECHANICAL_74_Z190_SUPPLYEQUIPMENTOUTLETNODE,Air,3
 Node,1020,STORAGE_74_Z191_SUPPLYINLET,Air,3
 Node,1021,STORAGE_74_Z191_COOLC-HEATCNODE,Air,6
 Node,1022,STORAGE_74_Z191_HEATC-FANNODE,Air,5
 Node,1023,STORAGE_74_Z191_SUPPLYEQUIPMENTOUTLETNODE,Air,3
 Node,1024,MECHANICAL_75_Z192_SUPPLYINLET,Air,3
 Node,1025,MECHANICAL_75_Z192_COOLC-HEATCNODE,Air,6
 Node,1026,MECHANICAL_75_Z192_HEATC-FANNODE,Air,5
 Node,1027,MECHANICAL_75_Z192_SUPPLYEQUIPMENTOUTLETNODE,Air,3
 Node,1028,STORAGE_75_Z193_SUPPLYINLET,Air,3
 Node,1029,STORAGE_75_Z193_COOLC-HEATCNODE,Air,6
 Node,1030,STORAGE_75_Z193_HEATC-FANNODE,Air,5
 Node,1031,STORAGE_75_Z193_SUPPLYEQUIPMENTOUTLETNODE,Air,3
 Node,1032,STORAGE_76_Z194_SUPPLYINLET,Air,3
 Node,1033,STORAGE_76_Z194_COOLC-HEATCNODE,Air,6
 Node,1034,STORAGE_76_Z194_HEATC-FANNODE,Air,5
 Node,1035,STORAGE_76_Z194_SUPPLYEQUIPMENTOUTLETNODE,Air,3
 Node,1036,LOBBY_77_Z195_SUPPLYINLET,Air,3
 Node,1037,LOBBY_77_Z195_COOLC-HEATCNODE,Air,6
 Node,1038,LOBBY_77_Z195_HEATC-FANNODE,Air,5
 Node,1039,LOBBY_77_Z195_SUPPLYEQUIPMENTOUTLETNODE,Air,3
 Node,1040,CONFERENCE_77_Z196_SUPPLYINLET,Air,3
 Node,1041,CONFERENCE_77_Z196_COOLC-HEATCNODE,Air,6
 Node,1042,CONFERENCE_77_Z196_HEATC-FANNODE,Air,5
 Node,1043,CONFERENCE_77_Z196_SUPPLYEQUIPMENTOUTLETNODE,Air,3
 Node,1044,BREAK_ROOM_77_Z197_SUPPLYINLET,Air,3
 Node,1045,BREAK_ROOM_77_Z197_COOLC-HEATCNODE,Air,6
 Node,1046,BREAK_ROOM_77_Z197_HEATC-FANNODE,Air,5
 Node,1047,BREAK_ROOM_77_Z197_SUPPLYEQUIPMENTOUTLETNODE,Air,3
 Node,1048,STORAGE_77_Z198_SUPPLYINLET,Air,3
 Node,1049,STORAGE_77_Z198_COOLC-HEATCNODE,Air,6
 Node,1050,STORAGE_77_Z198_HEATC-FANNODE,Air,5
 Node,1051,STORAGE_77_Z198_SUPPLYEQUIPMENTOUTLETNODE,Air,3
 Node,1052,CONFERENCE_78_Z199_SUPPLYINLET,Air,3
 Node,1053,CONFERENCE_78_Z199_COOLC-HEATCNODE,Air,6
 Node,1054,CONFERENCE_78_Z199_HEATC-FANNODE,Air,5
 Node,1055,CONFERENCE_78_Z199_SUPPLYEQUIPMENTOUTLETNODE,Air,3
 Node,1056,CONFERENCE_79_Z200_SUPPLYINLET,Air,3
 Node,1057,CONFERENCE_79_Z200_COOLC-HEATCNODE,Air,6
 Node,1058,CONFERENCE_79_Z200_HEATC-FANNODE,Air,5
 Node,1059,CONFERENCE_79_Z200_SUPPLYEQUIPMENTOUTLETNODE,Air,3
 Node,1060,BREAK_ROOM_79_Z201_SUPPLYINLET,Air,3
 Node,1061,BREAK_ROOM_79_Z201_COOLC-HEATCNODE,Air,6
 Node,1062,BREAK_ROOM_79_Z201_HEATC-FANNODE,Air,5
 Node,1063,BREAK_ROOM_79_Z201_SUPPLYEQUIPMENTOUTLETNODE,Air,3
 Node,1064,STORAGE_79_Z202_SUPPLYINLET,Air,3
 Node,1065,STORAGE_79_Z202_COOLC-HEATCNODE,Air,6
 Node,1066,STORAGE_79_Z202_HEATC-FANNODE,Air,5
 Node,1067,STORAGE_79_Z202_SUPPLYEQUIPMENTOUTLETNODE,Air,3
 Node,1068,CONFERENCE_80_Z203_SUPPLYINLET,Air,3
 Node,1069,CONFERENCE_80_Z203_COOLC-HEATCNODE,Air,6
 Node,1070,CONFERENCE_80_Z203_HEATC-FANNODE,Air,5
 Node,1071,CONFERENCE_80_Z203_SUPPLYEQUIPMENTOUTLETNODE,Air,3
 Node,1072,BREAK_ROOM_80_Z204_SUPPLYINLET,Air,3
 Node,1073,BREAK_ROOM_80_Z204_COOLC-HEATCNODE,Air,6
 Node,1074,BREAK_ROOM_80_Z204_HEATC-FANNODE,Air,5
 Node,1075,BREAK_ROOM_80_Z204_SUPPLYEQUIPMENTOUTLETNODE,Air,3
 Node,1076,OFFICE_PRIVATE_80_Z205_SUPPLYINLET,Air,3
 Node,1077,OFFICE_PRIVATE_80_Z205_COOLC-HEATCNODE,Air,6
 Node,1078,OFFICE_PRIVATE_80_Z205_HEATC-FANNODE,Air,5
 Node,1079,OFFICE_PRIVATE_80_Z205_SUPPLYEQUIPMENTOUTLETNODE,Air,3
 Node,1080,LOBBY_81_Z206_SUPPLYINLET,Air,3
 Node,1081,LOBBY_81_Z206_COOLC-HEATCNODE,Air,6
 Node,1082,LOBBY_81_Z206_HEATC-FANNODE,Air,5
 Node,1083,LOBBY_81_Z206_SUPPLYEQUIPMENTOUTLETNODE,Air,3
 Node,1084,OFFICE_PRIVATE_81_Z207_SUPPLYINLET,Air,3
 Node,1085,OFFICE_PRIVATE_81_Z207_COOLC-HEATCNODE,Air,6
 Node,1086,OFFICE_PRIVATE_81_Z207_HEATC-FANNODE,Air,5
 Node,1087,OFFICE_PRIVATE_81_Z207_SUPPLYEQUIPMENTOUTLETNODE,Air,3
 Node,1088,CONFERENCE_82_Z208_SUPPLYINLET,Air,3
 Node,1089,CONFERENCE_82_Z208_COOLC-HEATCNODE,Air,6
 Node,1090,CONFERENCE_82_Z208_HEATC-FANNODE,Air,5
 Node,1091,CONFERENCE_82_Z208_SUPPLYEQUIPMENTOUTLETNODE,Air,3
 Node,1092,OFFICE_PRIVATE_82_Z209_SUPPLYINLET,Air,3
 Node,1093,OFFICE_PRIVATE_82_Z209_COOLC-HEATCNODE,Air,6
 Node,1094,OFFICE_PRIVATE_82_Z209_HEATC-FANNODE,Air,5
 Node,1095,OFFICE_PRIVATE_82_Z209_SUPPLYEQUIPMENTOUTLETNODE,Air,3
 Node,1096,LOBBY_83_Z210_SUPPLYINLET,Air,3
 Node,1097,LOBBY_83_Z210_COOLC-HEATCNODE,Air,6
 Node,1098,LOBBY_83_Z210_HEATC-FANNODE,Air,5
 Node,1099,LOBBY_83_Z210_SUPPLYEQUIPMENTOUTLETNODE,Air,3
 Node,1100,OFFICE_PRIVATE_83_Z211_SUPPLYINLET,Air,3
 Node,1101,OFFICE_PRIVATE_83_Z211_COOLC-HEATCNODE,Air,6
 Node,1102,OFFICE_PRIVATE_83_Z211_HEATC-FANNODE,Air,5
 Node,1103,OFFICE_PRIVATE_83_Z211_SUPPLYEQUIPMENTOUTLETNODE,Air,3
 Node,1104,STORAGE_83_Z212_SUPPLYINLET,Air,3
 Node,1105,STORAGE_83_Z212_COOLC-HEATCNODE,Air,6
 Node,1106,STORAGE_83_Z212_HEATC-FANNODE,Air,5
 Node,1107,STORAGE_83_Z212_SUPPLYEQUIPMENTOUTLETNODE,Air,3
 Node,1108,LOBBY_84_Z213_SUPPLYINLET,Air,3
 Node,1109,LOBBY_84_Z213_COOLC-HEATCNODE,Air,6
 Node,1110,LOBBY_84_Z213_HEATC-FANNODE,Air,5
 Node,1111,LOBBY_84_Z213_SUPPLYEQUIPMENTOUTLETNODE,Air,3
 Node,1112,CONFERENCE_84_Z214_SUPPLYINLET,Air,3
 Node,1113,CONFERENCE_84_Z214_COOLC-HEATCNODE,Air,6
 Node,1114,CONFERENCE_84_Z214_HEATC-FANNODE,Air,5
 Node,1115,CONFERENCE_84_Z214_SUPPLYEQUIPMENTOUTLETNODE,Air,3
 Node,1116,OFFICE_PRIVATE_84_Z215_SUPPLYINLET,Air,3
 Node,1117,OFFICE_PRIVATE_84_Z215_COOLC-HEATCNODE,Air,6
 Node,1118,OFFICE_PRIVATE_84_Z215_HEATC-FANNODE,Air,5
 Node,1119,OFFICE_PRIVATE_84_Z215_SUPPLYEQUIPMENTOUTLETNODE,Air,3
 Node,1120,CONFERENCE_85_Z216_SUPPLYINLET,Air,3
 Node,1121,CONFERENCE_85_Z216_COOLC-HEATCNODE,Air,6
 Node,1122,CONFERENCE_85_Z216_HEATC-FANNODE,Air,5
 Node,1123,CONFERENCE_85_Z216_SUPPLYEQUIPMENTOUTLETNODE,Air,3
 Node,1124,MECHANICAL_85_Z217_SUPPLYINLET,Air,3
 Node,1125,MECHANICAL_85_Z217_COOLC-HEATCNODE,Air,6
 Node,1126,MECHANICAL_85_Z217_HEATC-FANNODE,Air,5
 Node,1127,MECHANICAL_85_Z217_SUPPLYEQUIPMENTOUTLETNODE,Air,3
 Node,1128,OFFICE_PRIVATE_85_Z218_SUPPLYINLET,Air,3
 Node,1129,OFFICE_PRIVATE_85_Z218_COOLC-HEATCNODE,Air,6
 Node,1130,OFFICE_PRIVATE_85_Z218_HEATC-FANNODE,Air,5
 Node,1131,OFFICE_PRIVATE_85_Z218_SUPPLYEQUIPMENTOUTLETNODE,Air,3
 Node,1132,CONFERENCE_86_Z219_SUPPLYINLET,Air,3
 Node,1133,CONFERENCE_86_Z219_COOLC-HEATCNODE,Air,6
 Node,1134,CONFERENCE_86_Z219_HEATC-FANNODE,Air,5
 Node,1135,CONFERENCE_86_Z219_SUPPLYEQUIPMENTOUTLETNODE,Air,3
 Node,1136,BREAK_ROOM_86_Z220_SUPPLYINLET,Air,3
 Node,1137,BREAK_ROOM_86_Z220_COOLC-HEATCNODE,Air,6
 Node,1138,BREAK_ROOM_86_Z220_HEATC-FANNODE,Air,5
 Node,1139,BREAK_ROOM_86_Z220_SUPPLYEQUIPMENTOUTLETNODE,Air,3
 Node,1140,OFFICE_PRIVATE_86_Z221_SUPPLYINLET,Air,3
 Node,1141,OFFICE_PRIVATE_86_Z221_COOLC-HEATCNODE,Air,6
 Node,1142,OFFICE_PRIVATE_86_Z221_HEATC-FANNODE,Air,5
 Node,1143,OFFICE_PRIVATE_86_Z221_SUPPLYEQUIPMENTOUTLETNODE,Air,3
 Node,1144,STORAGE_86_Z222_SUPPLYINLET,Air,3
 Node,1145,STORAGE_86_Z222_COOLC-HEATCNODE,Air,6
 Node,1146,STORAGE_86_Z222_HEATC-FANNODE,Air,5
 Node,1147,STORAGE_86_Z222_SUPPLYEQUIPMENTOUTLETNODE,Air,3
 Node,1148,CONFERENCE_87_Z223_SUPPLYINLET,Air,3
 Node,1149,CONFERENCE_87_Z223_COOLC-HEATCNODE,Air,6
 Node,1150,CONFERENCE_87_Z223_HEATC-FANNODE,Air,5
 Node,1151,CONFERENCE_87_Z223_SUPPLYEQUIPMENTOUTLETNODE,Air,3
 Node,1152,BREAK_ROOM_87_Z224_SUPPLYINLET,Air,3
 Node,1153,BREAK_ROOM_87_Z224_COOLC-HEATCNODE,Air,6
 Node,1154,BREAK_ROOM_87_Z224_HEATC-FANNODE,Air,5
 Node,1155,BREAK_ROOM_87_Z224_SUPPLYEQUIPMENTOUTLETNODE,Air,3
 Node,1156,MECHANICAL_87_Z225_SUPPLYINLET,Air,3
 Node,1157,MECHANICAL_87_Z225_COOLC-HEATCNODE,Air,6
 Node,1158,MECHANICAL_87_Z225_HEATC-FANNODE,Air,5
 Node,1159,MECHANICAL_87_Z225_SUPPLYEQUIPMENTOUTLETNODE,Air,3
 Node,1160,OFFICE_PRIVATE_87_Z226_SUPPLYINLET,Air,3
 Node,1161,OFFICE_PRIVATE_87_Z226_COOLC-HEATCNODE,Air,6
 Node,1162,OFFICE_PRIVATE_87_Z226_HEATC-FANNODE,Air,5
 Node,1163,OFFICE_PRIVATE_87_Z226_SUPPLYEQUIPMENTOUTLETNODE,Air,3
 Node,1164,STORAGE_87_Z227_SUPPLYINLET,Air,3
 Node,1165,STORAGE_87_Z227_COOLC-HEATCNODE,Air,6
 Node,1166,STORAGE_87_Z227_HEATC-FANNODE,Air,5
 Node,1167,STORAGE_87_Z227_SUPPLYEQUIPMENTOUTLETNODE,Air,3
 Node,1168,BREAK_ROOM_88_Z228_SUPPLYINLET,Air,3
 Node,1169,BREAK_ROOM_88_Z228_COOLC-HEATCNODE,Air,6
 Node,1170,BREAK_ROOM_88_Z228_HEATC-FANNODE,Air,5
 Node,1171,BREAK_ROOM_88_Z228_SUPPLYEQUIPMENTOUTLETNODE,Air,3
 Node,1172,OFFICE_PRIVATE_88_Z229_SUPPLYINLET,Air,3
 Node,1173,OFFICE_PRIVATE_88_Z229_COOLC-HEATCNODE,Air,6
 Node,1174,OFFICE_PRIVATE_88_Z229_HEATC-FANNODE,Air,5
 Node,1175,OFFICE_PRIVATE_88_Z229_SUPPLYEQUIPMENTOUTLETNODE,Air,3
 Node,1176,MECHANICAL_89_Z230_SUPPLYINLET,Air,3
 Node,1177,MECHANICAL_89_Z230_COOLC-HEATCNODE,Air,6
 Node,1178,MECHANICAL_89_Z230_HEATC-FANNODE,Air,5
 Node,1179,MECHANICAL_89_Z230_SUPPLYEQUIPMENTOUTLETNODE,Air,3
 Node,1180,OFFICE_PRIVATE_89_Z231_SUPPLYINLET,Air,3
 Node,1181,OFFICE_PRIVATE_89_Z231_COOLC-HEATCNODE,Air,6
 Node,1182,OFFICE_PRIVATE_89_Z231_HEATC-FANNODE,Air,5
 Node,1183,OFFICE_PRIVATE_89_Z231_SUPPLYEQUIPMENTOUTLETNODE,Air,3
 Node,1184,CONFERENCE_90_Z232_SUPPLYINLET,Air,3
 Node,1185,CONFERENCE_90_Z232_COOLC-HEATCNODE,Air,6
 Node,1186,CONFERENCE_90_Z232_HEATC-FANNODE,Air,5
 Node,1187,CONFERENCE_90_Z232_SUPPLYEQUIPMENTOUTLETNODE,Air,3
 Node,1188,BREAK_ROOM_90_Z233_SUPPLYINLET,Air,3
 Node,1189,BREAK_ROOM_90_Z233_COOLC-HEATCNODE,Air,6
 Node,1190,BREAK_ROOM_90_Z233_HEATC-FANNODE,Air,5
 Node,1191,BREAK_ROOM_90_Z233_SUPPLYEQUIPMENTOUTLETNODE,Air,3
 Node,1192,OFFICE_OPEN_91_Z234_SUPPLYINLET,Air,3
 Node,1193,OFFICE_OPEN_91_Z234_COOLC-HEATCNODE,Air,6
 Node,1194,OFFICE_OPEN_91_Z234_HEATC-FANNODE,Air,5
 Node,1195,OFFICE_OPEN_91_Z234_SUPPLYEQUIPMENTOUTLETNODE,Air,3
 Node,1196,OFFICE_PRIVATE_91_Z235_SUPPLYINLET,Air,3
 Node,1197,OFFICE_PRIVATE_91_Z235_COOLC-HEATCNODE,Air,6
 Node,1198,OFFICE_PRIVATE_91_Z235_HEATC-FANNODE,Air,5
 Node,1199,OFFICE_PRIVATE_91_Z235_SUPPLYEQUIPMENTOUTLETNODE,Air,3
 Node,1200,CONFERENCE_92_Z236_SUPPLYINLET,Air,3
 Node,1201,CONFERENCE_92_Z236_COOLC-HEATCNODE,Air,6
 Node,1202,CONFERENCE_92_Z236_HEATC-FANNODE,Air,5
 Node,1203,CONFERENCE_92_Z236_SUPPLYEQUIPMENTOUTLETNODE,Air,3
 Node,1204,BREAK_ROOM_92_Z237_SUPPLYINLET,Air,3
 Node,1205,BREAK_ROOM_92_Z237_COOLC-HEATCNODE,Air,6
 Node,1206,BREAK_ROOM_92_Z237_HEATC-FANNODE,Air,5
 Node,1207,BREAK_ROOM_92_Z237_SUPPLYEQUIPMENTOUTLETNODE,Air,3
 Node,1208,MECHANICAL_92_Z238_SUPPLYINLET,Air,3
 Node,1209,MECHANICAL_92_Z238_COOLC-HEATCNODE,Air,6
 Node,1210,MECHANICAL_92_Z238_HEATC-FANNODE,Air,5
 Node,1211,MECHANICAL_92_Z238_SUPPLYEQUIPMENTOUTLETNODE,Air,3
 Node,1212,OFFICE_PRIVATE_92_Z239_SUPPLYINLET,Air,3
 Node,1213,OFFICE_PRIVATE_92_Z239_COOLC-HEATCNODE,Air,6
 Node,1214,OFFICE_PRIVATE_92_Z239_HEATC-FANNODE,Air,5
 Node,1215,OFFICE_PRIVATE_92_Z239_SUPPLYEQUIPMENTOUTLETNODE,Air,3
 Node,1216,OFFICE_PRIVATE_93_Z240_SUPPLYINLET,Air,3
 Node,1217,OFFICE_PRIVATE_93_Z240_COOLC-HEATCNODE,Air,6
 Node,1218,OFFICE_PRIVATE_93_Z240_HEATC-FANNODE,Air,5
 Node,1219,OFFICE_PRIVATE_93_Z240_SUPPLYEQUIPMENTOUTLETNODE,Air,3
 Node,1220,STORAGE_93_Z241_SUPPLYINLET,Air,3
 Node,1221,STORAGE_93_Z241_COOLC-HEATCNODE,Air,6
 Node,1222,STORAGE_93_Z241_HEATC-FANNODE,Air,5
 Node,1223,STORAGE_93_Z241_SUPPLYEQUIPMENTOUTLETNODE,Air,3
 Node,1224,CONFERENCE_94_Z242_SUPPLYINLET,Air,3
 Node,1225,CONFERENCE_94_Z242_COOLC-HEATCNODE,Air,6
 Node,1226,CONFERENCE_94_Z242_HEATC-FANNODE,Air,5
 Node,1227,CONFERENCE_94_Z242_SUPPLYEQUIPMENTOUTLETNODE,Air,3
 Node,1228,BREAK_ROOM_94_Z243_SUPPLYINLET,Air,3
 Node,1229,BREAK_ROOM_94_Z243_COOLC-HEATCNODE,Air,6
 Node,1230,BREAK_ROOM_94_Z243_HEATC-FANNODE,Air,5
 Node,1231,BREAK_ROOM_94_Z243_SUPPLYEQUIPMENTOUTLETNODE,Air,3
 Node,1232,MECHANICAL_94_Z244_SUPPLYINLET,Air,3
 Node,1233,MECHANICAL_94_Z244_COOLC-HEATCNODE,Air,6
 Node,1234,MECHANICAL_94_Z244_HEATC-FANNODE,Air,5
 Node,1235,MECHANICAL_94_Z244_SUPPLYEQUIPMENTOUTLETNODE,Air,3
 Node,1236,OFFICE_PRIVATE_94_Z245_SUPPLYINLET,Air,3
 Node,1237,OFFICE_PRIVATE_94_Z245_COOLC-HEATCNODE,Air,6
 Node,1238,OFFICE_PRIVATE_94_Z245_HEATC-FANNODE,Air,5
 Node,1239,OFFICE_PRIVATE_94_Z245_SUPPLYEQUIPMENTOUTLETNODE,Air,3
 Node,1240,STORAGE_94_Z246_SUPPLYINLET,Air,3
 Node,1241,STORAGE_94_Z246_COOLC-HEATCNODE,Air,6
 Node,1242,STORAGE_94_Z246_HEATC-FANNODE,Air,5
 Node,1243,STORAGE_94_Z246_SUPPLYEQUIPMENTOUTLETNODE,Air,3
 Node,1244,MECHANICAL_95_Z247_SUPPLYINLET,Air,3
 Node,1245,MECHANICAL_95_Z247_COOLC-HEATCNODE,Air,6
 Node,1246,MECHANICAL_95_Z247_HEATC-FANNODE,Air,5
 Node,1247,MECHANICAL_95_Z247_SUPPLYEQUIPMENTOUTLETNODE,Air,3
 Node,1248,OFFICE_PRIVATE_95_Z248_SUPPLYINLET,Air,3
 Node,1249,OFFICE_PRIVATE_95_Z248_COOLC-HEATCNODE,Air,6
 Node,1250,OFFICE_PRIVATE_95_Z248_HEATC-FANNODE,Air,5
 Node,1251,OFFICE_PRIVATE_95_Z248_SUPPLYEQUIPMENTOUTLETNODE,Air,3
 Node,1252,OFFICE_PRIVATE_96_Z249_SUPPLYINLET,Air,3
 Node,1253,OFFICE_PRIVATE_96_Z249_COOLC-HEATCNODE,Air,6
 Node,1254,OFFICE_PRIVATE_96_Z249_HEATC-FANNODE,Air,5
 Node,1255,OFFICE_PRIVATE_96_Z249_SUPPLYEQUIPMENTOUTLETNODE,Air,3
 Node,1256,STORAGE_96_Z250_SUPPLYINLET,Air,3
 Node,1257,STORAGE_96_Z250_COOLC-HEATCNODE,Air,6
 Node,1258,STORAGE_96_Z250_HEATC-FANNODE,Air,5
 Node,1259,STORAGE_96_Z250_SUPPLYEQUIPMENTOUTLETNODE,Air,3
 Node,1260,CONFERENCE_97_Z251_SUPPLYINLET,Air,3
 Node,1261,CONFERENCE_97_Z251_COOLC-HEATCNODE,Air,6
 Node,1262,CONFERENCE_97_Z251_HEATC-FANNODE,Air,5
 Node,1263,CONFERENCE_97_Z251_SUPPLYEQUIPMENTOUTLETNODE,Air,3
 Node,1264,BREAK_ROOM_97_Z252_SUPPLYINLET,Air,3
 Node,1265,BREAK_ROOM_97_Z252_COOLC-HEATCNODE,Air,6
 Node,1266,BREAK_ROOM_97_Z252_HEATC-FANNODE,Air,5
 Node,1267,BREAK_ROOM_97_Z252_SUPPLYEQUIPMENTOUTLETNODE,Air,3
 Node,1268,MECHANICAL_97_Z253_SUPPLYINLET,Air,3
 Node,1269,MECHANICAL_97_Z253_COOLC-HEATCNODE,Air,6
 Node,1270,MECHANICAL_97_Z253_HEATC-FANNODE,Air,5
 Node,1271,MECHANICAL_97_Z253_SUPPLYEQUIPMENTOUTLETNODE,Air,3
 Node,1272,STORAGE_97_Z254_SUPPLYINLET,Air,3
 Node,1273,STORAGE_97_Z254_COOLC-HEATCNODE,Air,6
 Node,1274,STORAGE_97_Z254_HEATC-FANNODE,Air,5
 Node,1275,STORAGE_97_Z254_SUPPLYEQUIPMENTOUTLETNODE,Air,3
 Node,1276,BREAK_ROOM_98_Z255_SUPPLYINLET,Air,3
 Node,1277,BREAK_ROOM_98_Z255_COOLC-HEATCNODE,Air,6
 Node,1278,BREAK_ROOM_98_Z255_HEATC-FANNODE,Air,5
 Node,1279,BREAK_ROOM_98_Z255_SUPPLYEQUIPMENTOUTLETNODE,Air,3
 Node,1280,STORAGE_98_Z256_SUPPLYINLET,Air,3
 Node,1281,STORAGE_98_Z256_COOLC-HEATCNODE,Air,6
 Node,1282,STORAGE_98_Z256_HEATC-FANNODE,Air,5
 Node,1283,STORAGE_98_Z256_SUPPLYEQUIPMENTOUTLETNODE,Air,3
 Node,1284,BREAK_ROOM_99_Z257_SUPPLYINLET,Air,3
 Node,1285,BREAK_ROOM_99_Z257_COOLC-HEATCNODE,Air,6
 Node,1286,BREAK_ROOM_99_Z257_HEATC-FANNODE,Air,5
 Node,1287,BREAK_ROOM_99_Z257_SUPPLYEQUIPMENTOUTLETNODE,Air,3
 Node,1288,OFFICE_PRIVATE_99_Z258_SUPPLYINLET,Air,3
 Node,1289,OFFICE_PRIVATE_99_Z258_COOLC-HEATCNODE,Air,6
 Node,1290,OFFICE_PRIVATE_99_Z258_HEATC-FANNODE,Air,5
 Node,1291,OFFICE_PRIVATE_99_Z258_SUPPLYEQUIPMENTOUTLETNODE,Air,3
 Node,1292,STORAGE_99_Z259_SUPPLYINLET,Air,3
 Node,1293,STORAGE_99_Z259_COOLC-HEATCNODE,Air,6
 Node,1294,STORAGE_99_Z259_HEATC-FANNODE,Air,5
 Node,1295,STORAGE_99_Z259_SUPPLYEQUIPMENTOUTLETNODE,Air,3
 Node,1296,LOBBY_0 AIR NODE,Air,0
 Node,1297,LOBBY_0_Z1_RETURNAIR,Air,1
 Node,1298,OFFICE_PRIVATE_0 AIR NODE,Air,0
 Node,1299,OFFICE_PRIVATE_0_Z2_RETURNAIR,Air,1
 Node,1300,STORAGE_0 AIR NODE,Air,0
 Node,1301,STORAGE_0_Z3_RETURNAIR,Air,1
 Node,1302,BREAK_ROOM_1 AIR NODE,Air,0
 Node,1303,BREAK_ROOM_1_Z4_RETURNAIR,Air,1
 Node,1304,MECHANICAL_1 AIR NODE,Air,0
 Node,1305,MECHANICAL_1_Z5_RETURNAIR,Air,1
 Node,1306,OFFICE_PRIVATE_2 AIR NODE,Air,0
 Node,1307,OFFICE_PRIVATE_2_Z6_RETURNAIR,Air,1
 Node,1308,MECHANICAL_3 AIR NODE,Air,0
 Node,1309,MECHANICAL_3_Z7_RETURNAIR,Air,1
 Node,1310,STORAGE_3 AIR NODE,Air,0
 Node,1311,STORAGE_3_Z8_RETURNAIR,Air,1
 Node,1312,OFFICE_PRIVATE_4 AIR NODE,Air,0
 Node,1313,OFFICE_PRIVATE_4_Z9_RETURNAIR,Air,1
 Node,1314,LOBBY_5 AIR NODE,Air,0
 Node,1315,LOBBY_5_Z10_RETURNAIR,Air,1
 Node,1316,CONFERENCE_5 AIR NODE,Air,0
 Node,1317,CONFERENCE_5_Z11_RETURNAIR,Air,1
 Node,1318,OFFICE_PRIVATE_5 AIR NODE,Air,0
 Node,1319,OFFICE_PRIVATE_5_Z12_RETURNAIR,Air,1
 Node,1320,LOBBY_6 AIR NODE,Air,0
 Node,1321,LOBBY_6_Z13_RETURNAIR,Air,1
 Node,1322,MECHANICAL_6 AIR NODE,Air,0
 Node,1323,MECHANICAL_6_Z14_RETURNAIR,Air,1
 Node,1324,STORAGE_6 AIR NODE,Air,0
 Node,1325,STORAGE_6_Z15_RETURNAIR,Air,1
 Node,1326,OFFICE_OPEN_7 AIR NODE,Air,0
 Node,1327,OFFICE_OPEN_7_Z16_RETURNAIR,Air,1
 Node,1328,OFFICE_PRIVATE_7 AIR NODE,Air,0
 Node,1329,OFFICE_PRIVATE_7_Z17_RETURNAIR,Air,1
 Node,1330,LOBBY_8 AIR NODE,Air,0
 Node,1331,LOBBY_8_Z18_RETURNAIR,Air,1
 Node,1332,CONFERENCE_8 AIR NODE,Air,0
 Node,1333,CONFERENCE_8_Z19_RETURNAIR,Air,1
 Node,1334,BREAK_ROOM_8 AIR NODE,Air,0
 Node,1335,BREAK_ROOM_8_Z20_RETURNAIR,Air,1
 Node,1336,STORAGE_8 AIR NODE,Air,0
 Node,1337,STORAGE_8_Z21_RETURNAIR,Air,1
 Node,1338,MECHANICAL_9 AIR NODE,Air,0
 Node,1339,MECHANICAL_9_Z22_RETURNAIR,Air,1
 Node,1340,STORAGE_9 AIR NODE,Air,0
 Node,1341,STORAGE_9_Z23_RETURNAIR,Air,1
 Node,1342,LOBBY_10 AIR NODE,Air,0
 Node,1343,LOBBY_10_Z24_RETURNAIR,Air,1
 Node,1344,CONFERENCE_10 AIR NODE,Air,0
 Node,1345,CONFERENCE_10_Z25_RETURNAIR,Air,1
 Node,1346,LOBBY_11 AIR NODE,Air,0
 Node,1347,LOBBY_11_Z26_RETURNAIR,Air,1
 Node,1348,BREAK_ROOM_11 AIR NODE,Air,0
 Node,1349,BREAK_ROOM_11_Z27_RETURNAIR,Air,1
 Node,1350,MECHANICAL_11 AIR NODE,Air,0
 Node,1351,MECHANICAL_11_Z28_RETURNAIR,Air,1
 Node,1352,OFFICE_PRIVATE_11 AIR NODE,Air,0
 Node,1353,OFFICE_PRIVATE_11_Z29_RETURNAIR,Air,1
 Node,1354,BREAK_ROOM_12 AIR NODE,Air,0
 Node,1355,BREAK_ROOM_12_Z30_RETURNAIR,Air,1
 Node,1356,MECHANICAL_12 AIR NODE,Air,0
 Node,1357,MECHANICAL_12_Z31_RETURNAIR,Air,1
 Node,1358,OFFICE_PRIVATE_12 AIR NODE,Air,0
 Node,1359,OFFICE_PRIVATE_12_Z32_RETURNAIR,Air,1
 Node,1360,MECHANICAL_13 AIR NODE,Air,0
 Node,1361,MECHANICAL_13_Z33_RETURNAIR,Air,1
 Node,1362,OFFICE_PRIVATE_13 AIR NODE,Air,0
 Node,1363,OFFICE_PRIVATE_13_Z34_RETURNAIR,Air,1
 Node,1364,STORAGE_13 AIR NODE,Air,0
 Node,1365,STORAGE_13_Z35_RETURNAIR,Air,1
 Node,1366,BREAK_ROOM_14 AIR NODE,Air,0
 Node,1367,BREAK_ROOM_14_Z36_RETURNAIR,Air,1
 Node,1368,STORAGE_14 AIR NODE,Air,0
 Node,1369,STORAGE_14_Z37_RETURNAIR,Air,1
 Node,1370,MECHANICAL_15 AIR NODE,Air,0
 Node,1371,MECHANICAL_15_Z38_RETURNAIR,Air,1
 Node,1372,OFFICE_PRIVATE_15 AIR NODE,Air,0
 Node,1373,OFFICE_PRIVATE_15_Z39_RETURNAIR,Air,1
 Node,1374,STORAGE_15 AIR NODE,Air,0
 Node,1375,STORAGE_15_Z40_RETURNAIR,Air,1
 Node,1376,OFFICE_PRIVATE_16 AIR NODE,Air,0
 Node,1377,OFFICE_PRIVATE_16_Z41_RETURNAIR,Air,1
 Node,1378,CONFERENCE_17 AIR NODE,Air,0
 Node,1379,CONFERENCE_17_Z42_RETURNAIR,Air,1
 Node,1380,MECHANICAL_17 AIR NODE,Air,0
 Node,1381,MECHANICAL_17_Z43_RETURNAIR,Air,1
 Node,1382,OFFICE_PRIVATE_17 AIR NODE,Air,0
 Node,1383,OFFICE_PRIVATE_17_Z44_RETURNAIR,Air,1
 Node,1384,STORAGE_17 AIR NODE,Air,0
 Node,1385,STORAGE_17_Z45_RETURNAIR,Air,1
 Node,1386,LOBBY_18 AIR NODE,Air,0
 Node,1387,LOBBY_18_Z46_RETURNAIR,Air,1
 Node,1388,MECHANICAL_18 AIR NODE,Air,0
 Node,1389,MECHANICAL_18_Z47_RETURNAIR,Air,1
 Node,1390,OFFICE_PRIVATE_18 AIR NODE,Air,0
 Node,1391,OFFICE_PRIVATE_18_Z48_RETURNAIR,Air,1
 Node,1392,STORAGE_18 AIR NODE,Air,0
 Node,1393,STORAGE_18_Z49_RETURNAIR,Air,1
 Node,1394,MECHANICAL_19 AIR NODE,Air,0
 Node,1395,MECHANICAL_19_Z50_RETURNAIR,Air,1
 Node,1396,OFFICE_PRIVATE_19 AIR NODE,Air,0
 Node,1397,OFFICE_PRIVATE_19_Z51_RETURNAIR,Air,1
 Node,1398,STORAGE_19 AIR NODE,Air,0
 Node,1399,STORAGE_19_Z52_RETURNAIR,Air,1
 Node,1400,CONFERENCE_20 AIR NODE,Air,0
 Node,1401,CONFERENCE_20_Z53_RETURNAIR,Air,1
 Node,1402,BREAK_ROOM_21 AIR NODE,Air,0
 Node,1403,BREAK_ROOM_21_Z54_RETURNAIR,Air,1
 Node,1404,MECHANICAL_21 AIR NODE,Air,0
 Node,1405,MECHANICAL_21_Z55_RETURNAIR,Air,1
 Node,1406,LOBBY_22 AIR NODE,Air,0
 Node,1407,LOBBY_22_Z56_RETURNAIR,Air,1
 Node,1408,BREAK_ROOM_22 AIR NODE,Air,0
 Node,1409,BREAK_ROOM_22_Z57_RETURNAIR,Air,1
 Node,1410,OFFICE_PRIVATE_22 AIR NODE,Air,0
 Node,1411,OFFICE_PRIVATE_22_Z58_RETURNAIR,Air,1
 Node,1412,STORAGE_22 AIR NODE,Air,0
 Node,1413,STORAGE_22_Z59_RETURNAIR,Air,1
 Node,1414,LOBBY_23 AIR NODE,Air,0
 Node,1415,LOBBY_23_Z60_RETURNAIR,Air,1
 Node,1416,BREAK_ROOM_23 AIR NODE,Air,0
 Node,1417,BREAK_ROOM_23_Z61_RETURNAIR,Air,1
 Node,1418,OFFICE_PRIVATE_23 AIR NODE,Air,0
 Node,1419,OFFICE_PRIVATE_23_Z62_RETURNAIR,Air,1
 Node,1420,STORAGE_23 AIR NODE,Air,0
 Node,1421,STORAGE_23_Z63_RETURNAIR,Air,1
 Node,1422,MECHANICAL_24 AIR NODE,Air,0
 Node,1423,MECHANICAL_24_Z64_RETURNAIR,Air,1
 Node,1424,OFFICE_PRIVATE_24 AIR NODE,Air,0
 Node,1425,OFFICE_PRIVATE_24_Z65_RETURNAIR,Air,1
 Node,1426,STORAGE_24 AIR NODE,Air,0
 Node,1427,STORAGE_24_Z66_RETURNAIR,Air,1
 Node,1428,CONFERENCE_25 AIR NODE,Air,0
 Node,1429,CONFERENCE_25_Z67_RETURNAIR,Air,1
 Node,1430,OFFICE_PRIVATE_25 AIR NODE,Air,0
 Node,1431,OFFICE_PRIVATE_25_Z68_RETURNAIR,Air,1
 Node,1432,CONFERENCE_26 AIR NODE,Air,0
 Node,1433,CONFERENCE_26_Z69_RETURNAIR,Air,1
 Node,1434,MECHANICAL_26 AIR NODE,Air,0
 Node,1435,MECHANICAL_26_Z70_RETURNAIR,Air,1
 Node,1436,STORAGE_26 AIR NODE,Air,0
 Node,1437,STORAGE_26_Z71_RETURNAIR,Air,1
 Node,1438,MECHANICAL_27 AIR NODE,Air,0
 Node,1439,MECHANICAL_27_Z72_RETURNAIR,Air,1
 Node,1440,OFFICE_PRIVATE_27 AIR NODE,Air,0
 Node,1441,OFFICE_PRIVATE_27_Z73_RETURNAIR,Air,1
 Node,1442,CONFERENCE_28 AIR NODE,Air,0
 Node,1443,CONFERENCE_28_Z74_RETURNAIR,Air,1
 Node,1444,BREAK_ROOM_28 AIR NODE,Air,0
 Node,1445,BREAK_ROOM_28_Z75_RETURNAIR,Air,1
 Node,1446,STORAGE_28 AIR NODE,Air,0
 Node,1447,STORAGE_28_Z76_RETURNAIR,Air,1
 Node,1448,BREAK_ROOM_30 AIR NODE,Air,0
 Node,1449,BREAK_ROOM_30_Z77_RETURNAIR,Air,1
 Node,1450,MECHANICAL_30 AIR NODE,Air,0
 Node,1451,MECHANICAL_30_Z78_RETURNAIR,Air,1
 Node,1452,OFFICE_PRIVATE_30 AIR NODE,Air,0
 Node,1453,OFFICE_PRIVATE_30_Z79_RETURNAIR,Air,1
 Node,1454,CONFERENCE_31 AIR NODE,Air,0
 Node,1455,CONFERENCE_31_Z80_RETURNAIR,Air,1
 Node,1456,OFFICE_PRIVATE_31 AIR NODE,Air,0
 Node,1457,OFFICE_PRIVATE_31_Z81_RETURNAIR,Air,1
 Node,1458,MECHANICAL_32 AIR NODE,Air,0
 Node,1459,MECHANICAL_32_Z82_RETURNAIR,Air,1
 Node,1460,OFFICE_PRIVATE_33 AIR NODE,Air,0
 Node,1461,OFFICE_PRIVATE_33_Z83_RETURNAIR,Air,1
 Node,1462,STORAGE_33 AIR NODE,Air,0
 Node,1463,STORAGE_33_Z84_RETURNAIR,Air,1
 Node,1464,BREAK_ROOM_34 AIR NODE,Air,0
 Node,1465,BREAK_ROOM_34_Z85_RETURNAIR,Air,1
 Node,1466,OFFICE_PRIVATE_34 AIR NODE,Air,0
 Node,1467,OFFICE_PRIVATE_34_Z86_RETURNAIR,Air,1
 Node,1468,LOBBY_35 AIR NODE,Air,0
 Node,1469,LOBBY_35_Z87_RETURNAIR,Air,1
 Node,1470,BREAK_ROOM_35 AIR NODE,Air,0
 Node,1471,BREAK_ROOM_35_Z88_RETURNAIR,Air,1
 Node,1472,MECHANICAL_35 AIR NODE,Air,0
 Node,1473,MECHANICAL_35_Z89_RETURNAIR,Air,1
 Node,1474,CONFERENCE_36 AIR NODE,Air,0
 Node,1475,CONFERENCE_36_Z90_RETURNAIR,Air,1
 Node,1476,BREAK_ROOM_36 AIR NODE,Air,0
 Node,1477,BREAK_ROOM_36_Z91_RETURNAIR,Air,1
 Node,1478,OFFICE_PRIVATE_36 AIR NODE,Air,0
 Node,1479,OFFICE_PRIVATE_36_Z92_RETURNAIR,Air,1
 Node,1480,STORAGE_36 AIR NODE,Air,0
 Node,1481,STORAGE_36_Z93_RETURNAIR,Air,1
 Node,1482,CONFERENCE_37 AIR NODE,Air,0
 Node,1483,CONFERENCE_37_Z94_RETURNAIR,Air,1
 Node,1484,BREAK_ROOM_37 AIR NODE,Air,0
 Node,1485,BREAK_ROOM_37_Z95_RETURNAIR,Air,1
 Node,1486,LOBBY_38 AIR NODE,Air,0
 Node,1487,LOBBY_38_Z96_RETURNAIR,Air,1
 Node,1488,MECHANICAL_38 AIR NODE,Air,0
 Node,1489,MECHANICAL_38_Z97_RETURNAIR,Air,1
 Node,1490,OFFICE_PRIVATE_38 AIR NODE,Air,0
 Node,1491,OFFICE_PRIVATE_38_Z98_RETURNAIR,Air,1
 Node,1492,STORAGE_38 AIR NODE,Air,0
 Node,1493,STORAGE_38_Z99_RETURNAIR,Air,1
 Node,1494,CONFERENCE_39 AIR NODE,Air,0
 Node,1495,CONFERENCE_39_Z100_RETURNAIR,Air,1
 Node,1496,BREAK_ROOM_39 AIR NODE,Air,0
 Node,1497,BREAK_ROOM_39_Z101_RETURNAIR,Air,1
 Node,1498,STORAGE_39 AIR NODE,Air,0
 Node,1499,STORAGE_39_Z102_RETURNAIR,Air,1
 Node,1500,BREAK_ROOM_40 AIR NODE,Air,0
 Node,1501,BREAK_ROOM_40_Z103_RETURNAIR,Air,1
 Node,1502,OFFICE_PRIVATE_40 AIR NODE,Air,0
 Node,1503,OFFICE_PRIVATE_40_Z104_RETURNAIR,Air,1
 Node,1504,STORAGE_40 AIR NODE,Air,0
 Node,1505,STORAGE_40_Z105_RETURNAIR,Air,1
 Node,1506,LOBBY_41 AIR NODE,Air,0
 Node,1507,LOBBY_41_Z106_RETURNAIR,Air,1
 Node,1508,BREAK_ROOM_41 AIR NODE,Air,0
 Node,1509,BREAK_ROOM_41_Z107_RETURNAIR,Air,1
 Node,1510,STORAGE_41 AIR NODE,Air,0
 Node,1511,STORAGE_41_Z108_RETURNAIR,Air,1
 Node,1512,LOBBY_42 AIR NODE,Air,0
 Node,1513,LOBBY_42_Z109_RETURNAIR,Air,1
 Node,1514,MECHANICAL_42 AIR NODE,Air,0
 Node,1515,MECHANICAL_42_Z110_RETURNAIR,Air,1
 Node,1516,OFFICE_PRIVATE_42 AIR NODE,Air,0
 Node,1517,OFFICE_PRIVATE_42_Z111_RETURNAIR,Air,1
 Node,1518,LOBBY_43 AIR NODE,Air,0
 Node,1519,LOBBY_43_Z112_RETURNAIR,Air,1
 Node,1520,MECHANICAL_43 AIR NODE,Air,0
 Node,1521,MECHANICAL_43_Z113_RETURNAIR,Air,1
 Node,1522,OFFICE_PRIVATE_43 AIR NODE,Air,0
 Node,1523,OFFICE_PRIVATE_43_Z114_RETURNAIR,Air,1
 Node,1524,BREAK_ROOM_44 AIR NODE,Air,0
 Node,1525,BREAK_ROOM_44_Z115_RETURNAIR,Air,1
 Node,1526,OFFICE_PRIVATE_44 AIR NODE,Air,0
 Node,1527,OFFICE_PRIVATE_44_Z116_RETURNAIR,Air,1
 Node,1528,STORAGE_44 AIR NODE,Air,0
 Node,1529,STORAGE_44_Z117_RETURNAIR,Air,1
 Node,1530,CONFERENCE_45 AIR NODE,Air,0
 Node,1531,CONFERENCE_45_Z118_RETURNAIR,Air,1
 Node,1532,MECHANICAL_45 AIR NODE,Air,0
 Node,1533,MECHANICAL_45_Z119_RETURNAIR,Air,1
 Node,1534,OFFICE_PRIVATE_45 AIR NODE,Air,0
 Node,1535,OFFICE_PRIVATE_45_Z120_RETURNAIR,Air,1
 Node,1536,LOBBY_46 AIR NODE,Air,0
 Node,1537,LOBBY_46_Z121_RETURNAIR,Air,1
 Node,1538,CONFERENCE_46 AIR NODE,Air,0
 Node,1539,CONFERENCE_46_Z122_RETURNAIR,Air,1
 Node,1540,OFFICE_PRIVATE_46 AIR NODE,Air,0
 Node,1541,OFFICE_PRIVATE_46_Z123_RETURNAIR,Air,1
 Node,1542,STORAGE_47 AIR NODE,Air,0
 Node,1543,STORAGE_47_Z124_RETURNAIR,Air,1
 Node,1544,LOBBY_48 AIR NODE,Air,0
 Node,1545,LOBBY_48_Z125_RETURNAIR,Air,1
 Node,1546,CONFERENCE_48 AIR NODE,Air,0
 Node,1547,CONFERENCE_48_Z126_RETURNAIR,Air,1
 Node,1548,OFFICE_PRIVATE_48 AIR NODE,Air,0
 Node,1549,OFFICE_PRIVATE_48_Z127_RETURNAIR,Air,1
 Node,1550,BREAK_ROOM_49 AIR NODE,Air,0
 Node,1551,BREAK_ROOM_49_Z128_RETURNAIR,Air,1
 Node,1552,MECHANICAL_49 AIR NODE,Air,0
 Node,1553,MECHANICAL_49_Z129_RETURNAIR,Air,1
 Node,1554,CONFERENCE_50 AIR NODE,Air,0
 Node,1555,CONFERENCE_50_Z130_RETURNAIR,Air,1
 Node,1556,MECHANICAL_50 AIR NODE,Air,0
 Node,1557,MECHANICAL_50_Z131_RETURNAIR,Air,1
 Node,1558,BREAK_ROOM_51 AIR NODE,Air,0
 Node,1559,BREAK_ROOM_51_Z132_RETURNAIR,Air,1
 Node,1560,MECHANICAL_51 AIR NODE,Air,0
 Node,1561,MECHANICAL_51_Z133_RETURNAIR,Air,1
 Node,1562,OFFICE_PRIVATE_51 AIR NODE,Air,0
 Node,1563,OFFICE_PRIVATE_51_Z134_RETURNAIR,Air,1
 Node,1564,OFFICE_OPEN_52 AIR NODE,Air,0
 Node,1565,OFFICE_OPEN_52_Z135_RETURNAIR,Air,1
 Node,1566,OFFICE_PRIVATE_52 AIR NODE,Air,0
 Node,1567,OFFICE_PRIVATE_52_Z136_RETURNAIR,Air,1
 Node,1568,STORAGE_52 AIR NODE,Air,0
 Node,1569,STORAGE_52_Z137_RETURNAIR,Air,1
 Node,1570,CONFERENCE_53 AIR NODE,Air,0
 Node,1571,CONFERENCE_53_Z138_RETURNAIR,Air,1
 Node,1572,OFFICE_PRIVATE_53 AIR NODE,Air,0
 Node,1573,OFFICE_PRIVATE_53_Z139_RETURNAIR,Air,1
 Node,1574,BREAK_ROOM_54 AIR NODE,Air,0
 Node,1575,BREAK_ROOM_54_Z140_RETURNAIR,Air,1
 Node,1576,OFFICE_OPEN_55 AIR NODE,Air,0
 Node,1577,OFFICE_OPEN_55_Z141_RETURNAIR,Air,1
 Node,1578,OFFICE_PRIVATE_55 AIR NODE,Air,0
 Node,1579,OFFICE_PRIVATE_55_Z142_RETURNAIR,Air,1
 Node,1580,LOBBY_56 AIR NODE,Air,0
 Node,1581,LOBBY_56_Z143_RETURNAIR,Air,1
 Node,1582,CONFERENCE_56 AIR NODE,Air,0
 Node,1583,CONFERENCE_56_Z144_RETURNAIR,Air,1
 Node,1584,BREAK_ROOM_56 AIR NODE,Air,0
 Node,1585,BREAK_ROOM_56_Z145_RETURNAIR,Air,1
 Node,1586,OFFICE_PRIVATE_56 AIR NODE,Air,0
 Node,1587,OFFICE_PRIVATE_56_Z146_RETURNAIR,Air,1
 Node,1588,OFFICE_OPEN_57 AIR NODE,Air,0
 Node,1589,OFFICE_OPEN_57_Z147_RETURNAIR,Air,1
 Node,1590,STORAGE_57 AIR NODE,Air,0
 Node,1591,STORAGE_57_Z148_RETURNAIR,Air,1
 Node,1592,CONFERENCE_58 AIR NODE,Air,0
 Node,1593,CONFERENCE_58_Z149_RETURNAIR,Air,1
 Node,1594,MECHANICAL_58 AIR NODE,Air,0
 Node,1595,MECHANICAL_58_Z150_RETURNAIR,Air,1
 Node,1596,OFFICE_PRIVATE_58 AIR NODE,Air,0
 Node,1597,OFFICE_PRIVATE_58_Z151_RETURNAIR,Air,1
 Node,1598,OFFICE_OPEN_59 AIR NODE,Air,0
 Node,1599,OFFICE_OPEN_59_Z152_RETURNAIR,Air,1
 Node,1600,OFFICE_PRIVATE_59 AIR NODE,Air,0
 Node,1601,OFFICE_PRIVATE_59_Z153_RETURNAIR,Air,1
 Node,1602,STORAGE_59 AIR NODE,Air,0
 Node,1603,STORAGE_59_Z154_RETURNAIR,Air,1
 Node,1604,CONFERENCE_60 AIR NODE,Air,0
 Node,1605,CONFERENCE_60_Z155_RETURNAIR,Air,1
 Node,1606,STORAGE_60 AIR NODE,Air,0
 Node,1607,STORAGE_60_Z156_RETURNAIR,Air,1
 Node,1608,BREAK_ROOM_61 AIR NODE,Air,0
 Node,1609,BREAK_ROOM_61_Z157_RETURNAIR,Air,1
 Node,1610,BREAK_ROOM_62 AIR NODE,Air,0
 Node,1611,BREAK_ROOM_62_Z158_RETURNAIR,Air,1
 Node,1612,MECHANICAL_62 AIR NODE,Air,0
 Node,1613,MECHANICAL_62_Z159_RETURNAIR,Air,1
 Node,1614,STORAGE_62 AIR NODE,Air,0
 Node,1615,STORAGE_62_Z160_RETURNAIR,Air,1
 Node,1616,OFFICE_OPEN_63 AIR NODE,Air,0
 Node,1617,OFFICE_OPEN_63_Z161_RETURNAIR,Air,1
 Node,1618,OFFICE_PRIVATE_63 AIR NODE,Air,0
 Node,1619,OFFICE_PRIVATE_63_Z162_RETURNAIR,Air,1
 Node,1620,CONFERENCE_64 AIR NODE,Air,0
 Node,1621,CONFERENCE_64_Z163_RETURNAIR,Air,1
 Node,1622,BREAK_ROOM_64 AIR NODE,Air,0
 Node,1623,BREAK_ROOM_64_Z164_RETURNAIR,Air,1
 Node,1624,LOBBY_65 AIR NODE,Air,0
 Node,1625,LOBBY_65_Z165_RETURNAIR,Air,1
 Node,1626,STORAGE_65 AIR NODE,Air,0
 Node,1627,STORAGE_65_Z166_RETURNAIR,Air,1
 Node,1628,MECHANICAL_66 AIR NODE,Air,0
 Node,1629,MECHANICAL_66_Z167_RETURNAIR,Air,1
 Node,1630,CONFERENCE_67 AIR NODE,Air,0
 Node,1631,CONFERENCE_67_Z168_RETURNAIR,Air,1
 Node,1632,BREAK_ROOM_67 AIR NODE,Air,0
 Node,1633,BREAK_ROOM_67_Z169_RETURNAIR,Air,1
 Node,1634,STORAGE_67 AIR NODE,Air,0
[...]
 Non-Parent Node Connection,STORAGE_70_Z182_SUPPLYINLET,COIL:COOLING:DX:SINGLESPEED,STORAGE_70_Z182_COOLINGCOILDX,Inlet,1
 Non-Parent Node Connection,STORAGE_70_Z182_COOLC-HEATCNODE,COIL:COOLING:DX:SINGLESPEED,STORAGE_70_Z182_COOLINGCOILDX,Outlet,1
 Non-Parent Node Connection,CONFERENCE_71_Z183_SUPPLYINLET,COIL:COOLING:DX:SINGLESPEED,CONFERENCE_71_Z183_COOLINGCOILDX,Inlet,1
 Non-Parent Node Connection,CONFERENCE_71_Z183_COOLC-HEATCNODE,COIL:COOLING:DX:SINGLESPEED,CONFERENCE_71_Z183_COOLINGCOILDX,Outlet,1
 Non-Parent Node Connection,OFFICE_PRIVATE_71_Z184_SUPPLYINLET,COIL:COOLING:DX:SINGLESPEED,OFFICE_PRIVATE_71_Z184_COOLINGCOILDX,Inlet,1
 Non-Parent Node Connection,OFFICE_PRIVATE_71_Z184_COOLC-HEATCNODE,COIL:COOLING:DX:SINGLESPEED,OFFICE_PRIVATE_71_Z184_COOLINGCOILDX,Outlet,1
 Non-Parent Node Connection,OFFICE_PRIVATE_72_Z185_SUPPLYINLET,COIL:COOLING:DX:SINGLESPEED,OFFICE_PRIVATE_72_Z185_COOLINGCOILDX,Inlet,1
 Non-Parent Node Connection,OFFICE_PRIVATE_72_Z185_COOLC-HEATCNODE,COIL:COOLING:DX:SINGLESPEED,OFFICE_PRIVATE_72_Z185_COOLINGCOILDX,Outlet,1
 Non-Parent Node Connection,CONFERENCE_73_Z186_SUPPLYINLET,COIL:COOLING:DX:SINGLESPEED,CONFERENCE_73_Z186_COOLINGCOILDX,Inlet,1
 Non-Parent Node Connection,CONFERENCE_73_Z186_COOLC-HEATCNODE,COIL:COOLING:DX:SINGLESPEED,CONFERENCE_73_Z186_COOLINGCOILDX,Outlet,1
 Non-Parent Node Connection,STORAGE_73_Z187_SUPPLYINLET,COIL:COOLING:DX:SINGLESPEED,STORAGE_73_Z187_COOLINGCOILDX,Inlet,1
 Non-Parent Node Connection,STORAGE_73_Z187_COOLC-HEATCNODE,COIL:COOLING:DX:SINGLESPEED,STORAGE_73_Z187_COOLINGCOILDX,Outlet,1
 Non-Parent Node Connection,LOBBY_74_Z188_SUPPLYINLET,COIL:COOLING:DX:SINGLESPEED,LOBBY_74_Z188_COOLINGCOILDX,Inlet,1
 Non-Parent Node Connection,LOBBY_74_Z188_COOLC-HEATCNODE,COIL:COOLING:DX:SINGLESPEED,LOBBY_74_Z188_COOLINGCOILDX,Outlet,1
 Non-Parent Node Connection,CONFERENCE_74_Z189_SUPPLYINLET,COIL:COOLING:DX:SINGLESPEED,CONFERENCE_74_Z189_COOLINGCOILDX,Inlet,1
 Non-Parent Node Connection,CONFERENCE_74_Z189_COOLC-HEATCNODE,COIL:COOLING:DX:SINGLESPEED,CONFERENCE_74_Z189_COOLINGCOILDX,Outlet,1
 Non-Parent Node Connection,MECHANICAL_74_Z190_SUPPLYINLET,COIL:COOLING:DX:SINGLESPEED,MECHANICAL_74_Z190_COOLINGCOILDX,Inlet,1
 Non-Parent Node Connection,MECHANICAL_74_Z190_COOLC-HEATCNODE,COIL:COOLING:DX:SINGLESPEED,MECHANICAL_74_Z190_COOLINGCOILDX,Outlet,1
 Non-Parent Node Connection,STORAGE_74_Z191_SUPPLYINLET,COIL:COOLING:DX:SINGLESPEED,STORAGE_74_Z191_COOLINGCOILDX,Inlet,1
 Non-Parent Node Connection,STORAGE_74_Z191_COOLC-HEATCNODE,COIL:COOLING:DX:SINGLESPEED,STORAGE_74_Z191_COOLINGCOILDX,Outlet,1
 Non-Parent Node Connection,MECHANICAL_75_Z192_SUPPLYINLET,COIL:COOLING:DX:SINGLESPEED,MECHANICAL_75_Z192_COOLINGCOILDX,Inlet,1
 Non-Parent Node Connection,MECHANICAL_75_Z192_COOLC-HEATCNODE,COIL:COOLING:DX:SINGLESPEED,MECHANICAL_75_Z192_COOLINGCOILDX,Outlet,1
 Non-Parent Node Connection,STORAGE_75_Z193_SUPPLYINLET,COIL:COOLING:DX:SINGLESPEED,STORAGE_75_Z193_COOLINGCOILDX,Inlet,1
 Non-Parent Node Connection,STORAGE_75_Z193_COOLC-HEATCNODE,COIL:COOLING:DX:SINGLESPEED,STORAGE_75_Z193_COOLINGCOILDX,Outlet,1
 Non-Parent Node Connection,STORAGE_76_Z194_SUPPLYINLET,COIL:COOLING:DX:SINGLESPEED,STORAGE_76_Z194_COOLINGCOILDX,Inlet,1
 Non-Parent Node Connection,STORAGE_76_Z194_COOLC-HEATCNODE,COIL:COOLING:DX:SINGLESPEED,STORAGE_76_Z194_COOLINGCOILDX,Outlet,1
 Non-Parent Node Connection,LOBBY_77_Z195_SUPPLYINLET,COIL:COOLING:DX:SINGLESPEED,LOBBY_77_Z195_COOLINGCOILDX,Inlet,1
 Non-Parent Node Connection,LOBBY_77_Z195_COOLC-HEATCNODE,COIL:COOLING:DX:SINGLESPEED,LOBBY_77_Z195_COOLINGCOILDX,Outlet,1
 Non-Parent Node Connection,CONFERENCE_77_Z196_SUPPLYINLET,COIL:COOLING:DX:SINGLESPEED,CONFERENCE_77_Z196_COOLINGCOILDX,Inlet,1
 Non-Parent Node Connection,CONFERENCE_77_Z196_COOLC-HEATCNODE,COIL:COOLING:DX:SINGLESPEED,CONFERENCE_77_Z196_COOLINGCOILDX,Outlet,1
 Non-Parent Node Connection,BREAK_ROOM_77_Z197_SUPPLYINLET,COIL:COOLING:DX:SINGLESPEED,BREAK_ROOM_77_Z197_COOLINGCOILDX,Inlet,1
 Non-Parent Node Connection,BREAK_ROOM_77_Z197_COOLC-HEATCNODE,COIL:COOLING:DX:SINGLESPEED,BREAK_ROOM_77_Z197_COOLINGCOILDX,Outlet,1
 Non-Parent Node Connection,STORAGE_77_Z198_SUPPLYINLET,COIL:COOLING:DX:SINGLESPEED,STORAGE_77_Z198_COOLINGCOILDX,Inlet,1
 Non-Parent Node Connection,STORAGE_77_Z198_COOLC-HEATCNODE,COIL:COOLING:DX:SINGLESPEED,STORAGE_77_Z198_COOLINGCOILDX,Outlet,1
 Non-Parent Node Connection,CONFERENCE_78_Z199_SUPPLYINLET,COIL:COOLING:DX:SINGLESPEED,CONFERENCE_78_Z199_COOLINGCOILDX,Inlet,1
 Non-Parent Node Connection,CONFERENCE_78_Z199_COOLC-HEATCNODE,COIL:COOLING:DX:SINGLESPEED,CONFERENCE_78_Z199_COOLINGCOILDX,Outlet,1
 Non-Parent Node Connection,CONFERENCE_79_Z200_SUPPLYINLET,COIL:COOLING:DX:SINGLESPEED,CONFERENCE_79_Z200_COOLINGCOILDX,Inlet,1
 Non-Parent Node Connection,CONFERENCE_79_Z200_COOLC-HEATCNODE,COIL:COOLING:DX:SINGLESPEED,CONFERENCE_79_Z200_COOLINGCOILDX,Outlet,1
 Non-Parent Node Connection,BREAK_ROOM_79_Z201_SUPPLYINLET,COIL:COOLING:DX:SINGLESPEED,BREAK_ROOM_79_Z201_COOLINGCOILDX,Inlet,1
 Non-Parent Node Connection,BREAK_ROOM_79_Z201_COOLC-HEATCNODE,COIL:COOLING:DX:SINGLESPEED,BREAK_ROOM_79_Z201_COOLINGCOILDX,Outlet,1
 Non-Parent Node Connection,STORAGE_79_Z202_SUPPLYINLET,COIL:COOLING:DX:SINGLESPEED,STORAGE_79_Z202_COOLINGCOILDX,Inlet,1
 Non-Parent Node Connection,STORAGE_79_Z202_COOLC-HEATCNODE,COIL:COOLING:DX:SINGLESPEED,STORAGE_79_Z202_COOLINGCOILDX,Outlet,1
 Non-Parent Node Connection,CONFERENCE_80_Z203_SUPPLYINLET,COIL:COOLING:DX:SINGLESPEED,CONFERENCE_80_Z203_COOLINGCOILDX,Inlet,1
 Non-Parent Node Connection,CONFERENCE_80_Z203_COOLC-HEATCNODE,COIL:COOLING:DX:SINGLESPEED,CONFERENCE_80_Z203_COOLINGCOILDX,Outlet,1
 Non-Parent Node Connection,BREAK_ROOM_80_Z204_SUPPLYINLET,COIL:COOLING:DX:SINGLESPEED,BREAK_ROOM_80_Z204_COOLINGCOILDX,Inlet,1
 Non-Parent Node Connection,BREAK_ROOM_80_Z204_COOLC-HEATCNODE,COIL:COOLING:DX:SINGLESPEED,BREAK_ROOM_80_Z204_COOLINGCOILDX,Outlet,1
 Non-Parent Node Connection,OFFICE_PRIVATE_80_Z205_SUPPLYINLET,COIL:COOLING:DX:SINGLESPEED,OFFICE_PRIVATE_80_Z205_COOLINGCOILDX,Inlet,1
 Non-Parent Node Connection,OFFICE_PRIVATE_80_Z205_COOLC-HEATCNODE,COIL:COOLING:DX:SINGLESPEED,OFFICE_PRIVATE_80_Z205_COOLINGCOILDX,Outlet,1
 Non-Parent Node Connection,LOBBY_81_Z206_SUPPLYINLET,COIL:COOLING:DX:SINGLESPEED,LOBBY_81_Z206_COOLINGCOILDX,Inlet,1
 Non-Parent Node Connection,LOBBY_81_Z206_COOLC-HEATCNODE,COIL:COOLING:DX:SINGLESPEED,LOBBY_81_Z206_COOLINGCOILDX,Outlet,1
 Non-Parent Node Connection,OFFICE_PRIVATE_81_Z207_SUPPLYINLET,COIL:COOLING:DX:SINGLESPEED,OFFICE_PRIVATE_81_Z207_COOLINGCOILDX,Inlet,1
 Non-Parent Node Connection,OFFICE_PRIVATE_81_Z207_COOLC-HEATCNODE,COIL:COOLING:DX:SINGLESPEED,OFFICE_PRIVATE_81_Z207_COOLINGCOILDX,Outlet,1
 Non-Parent Node Connection,CONFERENCE_82_Z208_SUPPLYINLET,COIL:COOLING:DX:SINGLESPEED,CONFERENCE_82_Z208_COOLINGCOILDX,Inlet,1
 Non-Parent Node Connection,CONFERENCE_82_Z208_COOLC-HEATCNODE,COIL:COOLING:DX:SINGLESPEED,CONFERENCE_82_Z208_COOLINGCOILDX,Outlet,1
 Non-Parent Node Connection,OFFICE_PRIVATE_82_Z209_SUPPLYINLET,COIL:COOLING:DX:SINGLESPEED,OFFICE_PRIVATE_82_Z209_COOLINGCOILDX,Inlet,1
 Non-Parent Node Connection,OFFICE_PRIVATE_82_Z209_COOLC-HEATCNODE,COIL:COOLING:DX:SINGLESPEED,OFFICE_PRIVATE_82_Z209_COOLINGCOILDX,Outlet,1
 Non-Parent Node Connection,LOBBY_83_Z210_SUPPLYINLET,COIL:COOLING:DX:SINGLESPEED,LOBBY_83_Z210_COOLINGCOILDX,Inlet,1
 Non-Parent Node Connection,LOBBY_83_Z210_COOLC-HEATCNODE,COIL:COOLING:DX:SINGLESPEED,LOBBY_83_Z210_COOLINGCOILDX,Outlet,1
 Non-Parent Node Connection,OFFICE_PRIVATE_83_Z211_SUPPLYINLET,COIL:COOLING:DX:SINGLESPEED,OFFICE_PRIVATE_83_Z211_COOLINGCOILDX,Inlet,1
 Non-Parent Node Connection,OFFICE_PRIVATE_83_Z211_COOLC-HEATCNODE,COIL:COOLING:DX:SINGLESPEED,OFFICE_PRIVATE_83_Z211_COOLINGCOILDX,Outlet,1
 Non-Parent Node Connection,STORAGE_83_Z212_SUPPLYINLET,COIL:COOLING:DX:SINGLESPEED,STORAGE_83_Z212_COOLINGCOILDX,Inlet,1
 Non-Parent Node Connection,STORAGE_83_Z212_COOLC-HEATCNODE,COIL:COOLING:DX:SINGLESPEED,STORAGE_83_Z212_COOLINGCOILDX,Outlet,1
 Non-Parent Node Connection,LOBBY_84_Z213_SUPPLYINLET,COIL:COOLING:DX:SINGLESPEED,LOBBY_84_Z213_COOLINGCOILDX,Inlet,1
 Non-Parent Node Connection,LOBBY_84_Z213_COOLC-HEATCNODE,COIL:COOLING:DX:SINGLESPEED,LOBBY_84_Z213_COOLINGCOILDX,Outlet,1
 Non-Parent Node Connection,CONFERENCE_84_Z214_SUPPLYINLET,COIL:COOLING:DX:SINGLESPEED,CONFERENCE_84_Z214_COOLINGCOILDX,Inlet,1
 Non-Parent Node Connection,CONFERENCE_84_Z214_COOLC-HEATCNODE,COIL:COOLING:DX:SINGLESPEED,CONFERENCE_84_Z214_COOLINGCOILDX,Outlet,1
 Non-Parent Node Connection,OFFICE_PRIVATE_84_Z215_SUPPLYINLET,COIL:COOLING:DX:SINGLESPEED,OFFICE_PRIVATE_84_Z215_COOLINGCOILDX,Inlet,1
 Non-Parent Node Connection,OFFICE_PRIVATE_84_Z215_COOLC-HEATCNODE,COIL:COOLING:DX:SINGLESPEED,OFFICE_PRIVATE_84_Z215_COOLINGCOILDX,Outlet,1
 Non-Parent Node Connection,CONFERENCE_85_Z216_SUPPLYINLET,COIL:COOLING:DX:SINGLESPEED,CONFERENCE_85_Z216_COOLINGCOILDX,Inlet,1
 Non-Parent Node Connection,CONFERENCE_85_Z216_COOLC-HEATCNODE,COIL:COOLING:DX:SINGLESPEED,CONFERENCE_85_Z216_COOLINGCOILDX,Outlet,1
 Non-Parent Node Connection,MECHANICAL_85_Z217_SUPPLYINLET,COIL:COOLING:DX:SINGLESPEED,MECHANICAL_85_Z217_COOLINGCOILDX,Inlet,1
 Non-Parent Node Connection,MECHANICAL_85_Z217_COOLC-HEATCNODE,COIL:COOLING:DX:SINGLESPEED,MECHANICAL_85_Z217_COOLINGCOILDX,Outlet,1
 Non-Parent Node Connection,OFFICE_PRIVATE_85_Z218_SUPPLYINLET,COIL:COOLING:DX:SINGLESPEED,OFFICE_PRIVATE_85_Z218_COOLINGCOILDX,Inlet,1
 Non-Parent Node Connection,OFFICE_PRIVATE_85_Z218_COOLC-HEATCNODE,COIL:COOLING:DX:SINGLESPEED,OFFICE_PRIVATE_85_Z218_COOLINGCOILDX,Outlet,1
 Non-Parent Node Connection,CONFERENCE_86_Z219_SUPPLYINLET,COIL:COOLING:DX:SINGLESPEED,CONFERENCE_86_Z219_COOLINGCOILDX,Inlet,1
 Non-Parent Node Connection,CONFERENCE_86_Z219_COOLC-HEATCNODE,COIL:COOLING:DX:SINGLESPEED,CONFERENCE_86_Z219_COOLINGCOILDX,Outlet,1
 Non-Parent Node Connection,BREAK_ROOM_86_Z220_SUPPLYINLET,COIL:COOLING:DX:SINGLESPEED,BREAK_ROOM_86_Z220_COOLINGCOILDX,Inlet,1
 Non-Parent Node Connection,BREAK_ROOM_86_Z220_COOLC-HEATCNODE,COIL:COOLING:DX:SINGLESPEED,BREAK_ROOM_86_Z220_COOLINGCOILDX,Outlet,1
 Non-Parent Node Connection,OFFICE_PRIVATE_86_Z221_SUPPLYINLET,COIL:COOLING:DX:SINGLESPEED,OFFICE_PRIVATE_86_Z221_COOLINGCOILDX,Inlet,1
 Non-Parent Node Connection,OFFICE_PRIVATE_86_Z221_COOLC-HEATCNODE,COIL:COOLING:DX:SINGLESPEED,OFFICE_PRIVATE_86_Z221_COOLINGCOILDX,Outlet,1
 Non-Parent Node Connection,STORAGE_86_Z222_SUPPLYINLET,COIL:COOLING:DX:SINGLESPEED,STORAGE_86_Z222_COOLINGCOILDX,Inlet,1
 Non-Parent Node Connection,STORAGE_86_Z222_COOLC-HEATCNODE,COIL:COOLING:DX:SINGLESPEED,STORAGE_86_Z222_COOLINGCOILDX,Outlet,1
 Non-Parent Node Connection,CONFERENCE_87_Z223_SUPPLYINLET,COIL:COOLING:DX:SINGLESPEED,CONFERENCE_87_Z223_COOLINGCOILDX,Inlet,1
 Non-Parent Node Connection,CONFERENCE_87_Z223_COOLC-HEATCNODE,COIL:COOLING:DX:SINGLESPEED,CONFERENCE_87_Z223_COOLINGCOILDX,Outlet,1
 Non-Parent Node Connection,BREAK_ROOM_87_Z224_SUPPLYINLET,COIL:COOLING:DX:SINGLESPEED,BREAK_ROOM_87_Z224_COOLINGCOILDX,Inlet,1
 Non-Parent Node Connection,BREAK_ROOM_87_Z224_COOLC-HEATCNODE,COIL:COOLING:DX:SINGLESPEED,BREAK_ROOM_87_Z224_COOLINGCOILDX,Outlet,1
 Non-Parent Node Connection,MECHANICAL_87_Z225_SUPPLYINLET,COIL:COOLING:DX:SINGLESPEED,MECHANICAL_87_Z225_COOLINGCOILDX,Inlet,1
 Non-Parent Node Connection,MECHANICAL_87_Z225_COOLC-HEATCNODE,COIL:COOLING:DX:SINGLESPEED,MECHANICAL_87_Z225_COOLINGCOILDX,Outlet,1
 Non-Parent Node Connection,OFFICE_PRIVATE_87_Z226_SUPPLYINLET,COIL:COOLING:DX:SINGLESPEED,OFFICE_PRIVATE_87_Z226_COOLINGCOILDX,Inlet,1
 Non-Parent Node Connection,OFFICE_PRIVATE_87_Z226_COOLC-HEATCNODE,COIL:COOLING:DX:SINGLESPEED,OFFICE_PRIVATE_87_Z226_COOLINGCOILDX,Outlet,1
 Non-Parent Node Connection,STORAGE_87_Z227_SUPPLYINLET,COIL:COOLING:DX:SINGLESPEED,STORAGE_87_Z227_COOLINGCOILDX,Inlet,1
 Non-Parent Node Connection,STORAGE_87_Z227_COOLC-HEATCNODE,COIL:COOLING:DX:SINGLESPEED,STORAGE_87_Z227_COOLINGCOILDX,Outlet,1
 Non-Parent Node Connection,BREAK_ROOM_88_Z228_SUPPLYINLET,COIL:COOLING:DX:SINGLESPEED,BREAK_ROOM_88_Z228_COOLINGCOILDX,Inlet,1
 Non-Parent Node Connection,BREAK_ROOM_88_Z228_COOLC-HEATCNODE,COIL:COOLING:DX:SINGLESPEED,BREAK_ROOM_88_Z228_COOLINGCOILDX,Outlet,1
 Non-Parent Node Connection,OFFICE_PRIVATE_88_Z229_SUPPLYINLET,COIL:COOLING:DX:SINGLESPEED,OFFICE_PRIVATE_88_Z229_COOLINGCOILDX,Inlet,1
 Non-Parent Node Connection,OFFICE_PRIVATE_88_Z229_COOLC-HEATCNODE,COIL:COOLING:DX:SINGLESPEED,OFFICE_PRIVATE_88_Z229_COOLINGCOILDX,Outlet,1
 Non-Parent Node Connection,MECHANICAL_89_Z230_SUPPLYINLET,COIL:COOLING:DX:SINGLESPEED,MECHANICAL_89_Z230_COOLINGCOILDX,Inlet,1
 Non-Parent Node Connection,MECHANICAL_89_Z230_COOLC-HEATCNODE,COIL:COOLING:DX:SINGLESPEED,MECHANICAL_89_Z230_COOLINGCOILDX,Outlet,1
 Non-Parent Node Connection,OFFICE_PRIVATE_89_Z231_SUPPLYINLET,COIL:COOLING:DX:SINGLESPEED,OFFICE_PRIVATE_89_Z231_COOLINGCOILDX,Inlet,1
 Non-Parent Node Connection,OFFICE_PRIVATE_89_Z231_COOLC-HEATCNODE,COIL:COOLING:DX:SINGLESPEED,OFFICE_PRIVATE_89_Z231_COOLINGCOILDX,Outlet,1
 Non-Parent Node Connection,CONFERENCE_90_Z232_SUPPLYINLET,COIL:COOLING:DX:SINGLESPEED,CONFERENCE_90_Z232_COOLINGCOILDX,Inlet,1
 Non-Parent Node Connection,CONFERENCE_90_Z232_COOLC-HEATCNODE,COIL:COOLING:DX:SINGLESPEED,CONFERENCE_90_Z232_COOLINGCOILDX,Outlet,1
 Non-Parent Node Connection,BREAK_ROOM_90_Z233_SUPPLYINLET,COIL:COOLING:DX:SINGLESPEED,BREAK_ROOM_90_Z233_COOLINGCOILDX,Inlet,1
 Non-Parent Node Connection,BREAK_ROOM_90_Z233_COOLC-HEATCNODE,COIL:COOLING:DX:SINGLESPEED,BREAK_ROOM_90_Z233_COOLINGCOILDX,Outlet,1
 Non-Parent Node Connection,OFFICE_OPEN_91_Z234_SUPPLYINLET,COIL:COOLING:DX:SINGLESPEED,OFFICE_OPEN_91_Z234_COOLINGCOILDX,Inlet,1
 Non-Parent Node Connection,OFFICE_OPEN_91_Z234_COOLC-HEATCNODE,COIL:COOLING:DX:SINGLESPEED,OFFICE_OPEN_91_Z234_COOLINGCOILDX,Outlet,1
 Non-Parent Node Connection,OFFICE_PRIVATE_91_Z235_SUPPLYINLET,COIL:COOLING:DX:SINGLESPEED,OFFICE_PRIVATE_91_Z235_COOLINGCOILDX,Inlet,1
 Non-Parent Node Connection,OFFICE_PRIVATE_91_Z235_COOLC-HEATCNODE,COIL:COOLING:DX:SINGLESPEED,OFFICE_PRIVATE_91_Z235_COOLINGCOILDX,Outlet,1
 Non-Parent Node Connection,CONFERENCE_92_Z236_SUPPLYINLET,COIL:COOLING:DX:SINGLESPEED,CONFERENCE_92_Z236_COOLINGCOILDX,Inlet,1
 Non-Parent Node Connection,CONFERENCE_92_Z236_COOLC-HEATCNODE,COIL:COOLING:DX:SINGLESPEED,CONFERENCE_92_Z236_COOLINGCOILDX,Outlet,1
 Non-Parent Node Connection,BREAK_ROOM_92_Z237_SUPPLYINLET,COIL:COOLING:DX:SINGLESPEED,BREAK_ROOM_92_Z237_COOLINGCOILDX,Inlet,1
 Non-Parent Node Connection,BREAK_ROOM_92_Z237_COOLC-HEATCNODE,COIL:COOLING:DX:SINGLESPEED,BREAK_ROOM_92_Z237_COOLINGCOILDX,Outlet,1
 Non-Parent Node Connection,MECHANICAL_92_Z238_SUPPLYINLET,COIL:COOLING:DX:SINGLESPEED,MECHANICAL_92_Z238_COOLINGCOILDX,Inlet,1
 Non-Parent Node Connection,MECHANICAL_92_Z238_COOLC-HEATCNODE,COIL:COOLING:DX:SINGLESPEED,MECHANICAL_92_Z238_COOLINGCOILDX,Outlet,1
 Non-Parent Node Connection,OFFICE_PRIVATE_92_Z239_SUPPLYINLET,COIL:COOLING:DX:SINGLESPEED,OFFICE_PRIVATE_92_Z239_COOLINGCOILDX,Inlet,1
 Non-Parent Node Connection,OFFICE_PRIVATE_92_Z239_COOLC-HEATCNODE,COIL:COOLING:DX:SINGLESPEED,OFFICE_PRIVATE_92_Z239_COOLINGCOILDX,Outlet,1
 Non-Parent Node Connection,OFFICE_PRIVATE_93_Z240_SUPPLYINLET,COIL:COOLING:DX:SINGLESPEED,OFFICE_PRIVATE_93_Z240_COOLINGCOILDX,Inlet,1
 Non-Parent Node Connection,OFFICE_PRIVATE_93_Z240_COOLC-HEATCNODE,COIL:COOLING:DX:SINGLESPEED,OFFICE_PRIVATE_93_Z240_COOLINGCOILDX,Outlet,1
 Non-Parent Node Connection,STORAGE_93_Z241_SUPPLYINLET,COIL:COOLING:DX:SINGLESPEED,STORAGE_93_Z241_COOLINGCOILDX,Inlet,1
 Non-Parent Node Connection,STORAGE_93_Z241_COOLC-HEATCNODE,COIL:COOLING:DX:SINGLESPEED,STORAGE_93_Z241_COOLINGCOILDX,Outlet,1
 Non-Parent Node Connection,CONFERENCE_94_Z242_SUPPLYINLET,COIL:COOLING:DX:SINGLESPEED,CONFERENCE_94_Z242_COOLINGCOILDX,Inlet,1
 Non-Parent Node Connection,CONFERENCE_94_Z242_COOLC-HEATCNODE,COIL:COOLING:DX:SINGLESPEED,CONFERENCE_94_Z242_COOLINGCOILDX,Outlet,1
 Non-Parent Node Connection,BREAK_ROOM_94_Z243_SUPPLYINLET,COIL:COOLING:DX:SINGLESPEED,BREAK_ROOM_94_Z243_COOLINGCOILDX,Inlet,1
 Non-Parent Node Connection,BREAK_ROOM_94_Z243_COOLC-HEATCNODE,COIL:COOLING:DX:SINGLESPEED,BREAK_ROOM_94_Z243_COOLINGCOILDX,Outlet,1
 Non-Parent Node Connection,MECHANICAL_94_Z244_SUPPLYINLET,COIL:COOLING:DX:SINGLESPEED,MECHANICAL_94_Z244_COOLINGCOILDX,Inlet,1
 Non-Parent Node Connection,MECHANICAL_94_Z244_COOLC-HEATCNODE,COIL:COOLING:DX:SINGLESPEED,MECHANICAL_94_Z244_COOLINGCOILDX,Outlet,1
 Non-Parent Node Connection,OFFICE_PRIVATE_94_Z245_SUPPLYINLET,COIL:COOLING:DX:SINGLESPEED,OFFICE_PRIVATE_94_Z245_COOLINGCOILDX,Inlet,1
 Non-Parent Node Connection,OFFICE_PRIVATE_94_Z245_COOLC-HEATCNODE,COIL:COOLING:DX:SINGLESPEED,OFFICE_PRIVATE_94_Z245_COOLINGCOILDX,Outlet,1
 Non-Parent Node Connection,STORAGE_94_Z246_SUPPLYINLET,COIL:COOLING:DX:SINGLESPEED,STORAGE_94_Z246_COOLINGCOILDX,Inlet,1
 Non-Parent Node Connection,STORAGE_94_Z246_COOLC-HEATCNODE,COIL:COOLING:DX:SINGLESPEED,STORAGE_94_Z246_COOLINGCOILDX,Outlet,1
 Non-Parent Node Connection,MECHANICAL_95_Z247_SUPPLYINLET,COIL:COOLING:DX:SINGLESPEED,MECHANICAL_95_Z247_COOLINGCOILDX,Inlet,1
 Non-Parent Node Connection,MECHANICAL_95_Z247_COOLC-HEATCNODE,COIL:COOLING:DX:SINGLESPEED,MECHANICAL_95_Z247_COOLINGCOILDX,Outlet,1
 Non-Parent Node Connection,OFFICE_PRIVATE_95_Z248_SUPPLYINLET,COIL:COOLING:DX:SINGLESPEED,OFFICE_PRIVATE_95_Z248_COOLINGCOILDX,Inlet,1
 Non-Parent Node Connection,OFFICE_PRIVATE_95_Z248_COOLC-HEATCNODE,COIL:COOLING:DX:SINGLESPEED,OFFICE_PRIVATE_95_Z248_COOLINGCOILDX,Outlet,1
 Non-Parent Node Connection,OFFICE_PRIVATE_96_Z249_SUPPLYINLET,COIL:COOLING:DX:SINGLESPEED,OFFICE_PRIVATE_96_Z249_COOLINGCOILDX,Inlet,1
 Non-Parent Node Connection,OFFICE_PRIVATE_96_Z249_COOLC-HEATCNODE,COIL:COOLING:DX:SINGLESPEED,OFFICE_PRIVATE_96_Z249_COOLINGCOILDX,Outlet,1
 Non-Parent Node Connection,STORAGE_96_Z250_SUPPLYINLET,COIL:COOLING:DX:SINGLESPEED,STORAGE_96_Z250_COOLINGCOILDX,Inlet,1
 Non-Parent Node Connection,STORAGE_96_Z250_COOLC-HEATCNODE,COIL:COOLING:DX:SINGLESPEED,STORAGE_96_Z250_COOLINGCOILDX,Outlet,1
 Non-Parent Node Connection,CONFERENCE_97_Z251_SUPPLYINLET,COIL:COOLING:DX:SINGLESPEED,CONFERENCE_97_Z251_COOLINGCOILDX,Inlet,1
 Non-Parent Node Connection,CONFERENCE_97_Z251_COOLC-HEATCNODE,COIL:COOLING:DX:SINGLESPEED,CONFERENCE_97_Z251_COOLINGCOILDX,Outlet,1
 Non-Parent Node Connection,BREAK_ROOM_97_Z252_SUPPLYINLET,COIL:COOLING:DX:SINGLESPEED,BREAK_ROOM_97_Z252_COOLINGCOILDX,Inlet,1
 Non-Parent Node Connection,BREAK_ROOM_97_Z252_COOLC-HEATCNODE,COIL:COOLING:DX:SINGLESPEED,BREAK_ROOM_97_Z252_COOLINGCOILDX,Outlet,1
 Non-Parent Node Connection,MECHANICAL_97_Z253_SUPPLYINLET,COIL:COOLING:DX:SINGLESPEED,MECHANICAL_97_Z253_COOLINGCOILDX,Inlet,1
 Non-Parent Node Connection,MECHANICAL_97_Z253_COOLC-HEATCNODE,COIL:COOLING:DX:SINGLESPEED,MECHANICAL_97_Z253_COOLINGCOILDX,Outlet,1
 Non-Parent Node Connection,STORAGE_97_Z254_SUPPLYINLET,COIL:COOLING:DX:SINGLESPEED,STORAGE_97_Z254_COOLINGCOILDX,Inlet,1
 Non-Parent Node Connection,STORAGE_97_Z254_COOLC-HEATCNODE,COIL:COOLING:DX:SINGLESPEED,STORAGE_97_Z254_COOLINGCOILDX,Outlet,1
 Non-Parent Node Connection,BREAK_ROOM_98_Z255_SUPPLYINLET,COIL:COOLING:DX:SINGLESPEED,BREAK_ROOM_98_Z255_COOLINGCOILDX,Inlet,1
 Non-Parent Node Connection,BREAK_ROOM_98_Z255_COOLC-HEATCNODE,COIL:COOLING:DX:SINGLESPEED,BREAK_ROOM_98_Z255_COOLINGCOILDX,Outlet,1
 Non-Parent Node Connection,STORAGE_98_Z256_SUPPLYINLET,COIL:COOLING:DX:SINGLESPEED,STORAGE_98_Z256_COOLINGCOILDX,Inlet,1
 Non-Parent Node Connection,STORAGE_98_Z256_COOLC-HEATCNODE,COIL:COOLING:DX:SINGLESPEED,STORAGE_98_Z256_COOLINGCOILDX,Outlet,1
 Non-Parent Node Connection,BREAK_ROOM_99_Z257_SUPPLYINLET,COIL:COOLING:DX:SINGLESPEED,BREAK_ROOM_99_Z257_COOLINGCOILDX,Inlet,1
 Non-Parent Node Connection,BREAK_ROOM_99_Z257_COOLC-HEATCNODE,COIL:COOLING:DX:SINGLESPEED,BREAK_ROOM_99_Z257_COOLINGCOILDX,Outlet,1
 Non-Parent Node Connection,OFFICE_PRIVATE_99_Z258_SUPPLYINLET,COIL:COOLING:DX:SINGLESPEED,OFFICE_PRIVA