Program Version,EnergyPlus, Version 24.2.0-94a887817b, YMD=2025.11.02 17:35,
Var Type (reported time step),Var Report Type,Variable Name [Units]
Zone,Meter,Electricity:Facility [J]
Zone,Meter,Electricity:Building [J]
Zone,Meter,Electricity:Zone:LOBBY_0 [J]
Zone,Meter,Electricity:SpaceType:GENERAL [J]
Zone,Meter,InteriorLights:Electricity [J]
Zone,Meter,InteriorLights:Electricity:Zone:LOBBY_0 [J]
Zone,Meter,InteriorLights:Electricity:SpaceType:GENERAL [J]
Zone,Meter,General:InteriorLights:Electricity [J]
Zone,Meter,General:InteriorLights:Electricity:Zone:LOBBY_0 [J]
Zone,Meter,General:InteriorLights:Electricity:SpaceType:GENERAL [J]
Zone,Meter,Electricity:Zone:OFFICE_PRIVATE_0 [J]
Zone,Meter,InteriorLights:Electricity:Zone:OFFICE_PRIVATE_0 [J]
Zone,Meter,General:InteriorLights:Electricity:Zone:OFFICE_PRIVATE_0 [J]
Zone,Meter,Electricity:Zone:STORAGE_0 [J]
Zone,Meter,InteriorLights:Electricity:Zone:STORAGE_0 [J]
Zone,Meter,General:InteriorLights:Electricity:Zone:STORAGE_0 [J]
Zone,Meter,Electricity:Zone:BREAK_ROOM_1 [J]
Zone,Meter,InteriorLights:Electricity:Zone:BREAK_ROOM_1 [J]
Zone,Meter,General:InteriorLights:Electricity:Zone:BREAK_ROOM_1 [J]
Zone,Meter,Electricity:Zone:MECHANICAL_1 [J]
Zone,Meter,InteriorLights:Electricity:Zone:MECHANICAL_1 [J]
Zone,Meter,General:InteriorLights:Electricity:Zone:MECHANICAL_1 [J]
Zone,Meter,Electricity:Zone:OFFICE_PRIVATE_2 [J]
Zone,Meter,InteriorLights:Electricity:Zone:OFFICE_PRIVATE_2 [J]
Zone,Meter,General:InteriorLights:Electricity:Zone:OFFICE_PRIVATE_2 [J]
Zone,Meter,Electricity:Zone:MECHANICAL_3 [J]
Zone,Meter,InteriorLights:Electricity:Zone:MECHANICAL_3 [J]
Zone,Meter,General:InteriorLights:Electricity:Zone:MECHANICAL_3 [J]
Zone,Meter,Electricity:Zone:STORAGE_3 [J]
Zone,Meter,InteriorLights:Electricity:Zone:STORAGE_3 [J]
Zone,Meter,General:InteriorLights:Electricity:Zone:STORAGE_3 [J]
Zone,Meter,Electricity:Zone:OFFICE_PRIVATE_4 [J]
Zone,Meter,InteriorLights:Electricity:Zone:OFFICE_PRIVATE_4 [J]
Zone,Meter,General:InteriorLights:Electricity:Zone:OFFICE_PRIVATE_4 [J]
Zone,Meter,Electricity:Zone:LOBBY_5 [J]
Zone,Meter,InteriorLights:Electricity:Zone:LOBBY_5 [J]
Zone,Meter,General:InteriorLights:Electricity:Zone:LOBBY_5 [J]
Zone,Meter,Electricity:Zone:CONFERENCE_5 [J]
Zone,Meter,InteriorLights:Electricity:Zone:CONFERENCE_5 [J]
Zone,Meter,General:InteriorLights:Electricity:Zone:CONFERENCE_5 [J]
Zone,Meter,Electricity:Zone:OFFICE_PRIVATE_5 [J]
Zone,Meter,InteriorLights:Electricity:Zone:OFFICE_PRIVATE_5 [J]
Zone,Meter,General:InteriorLights:Electricity:Zone:OFFICE_PRIVATE_5 [J]
Zone,Meter,Electricity:Zone:LOBBY_6 [J]
Zone,Meter,InteriorLights:Electricity:Zone:LOBBY_6 [J]
Zone,Meter,General:InteriorLights:Electricity:Zone:LOBBY_6 [J]
Zone,Meter,Electricity:Zone:MECHANICAL_6 [J]
Zone,Meter,InteriorLights:Electricity:Zone:MECHANICAL_6 [J]
Zone,Meter,General:InteriorLights:Electricity:Zone:MECHANICAL_6 [J]
Zone,Meter,Electricity:Zone:STORAGE_6 [J]
Zone,Meter,InteriorLights:Electricity:Zone:STORAGE_6 [J]
Zone,Meter,General:InteriorLights:Electricity:Zone:STORAGE_6 [J]
Zone,Meter,Electricity:Zone:OFFICE_OPEN_7 [J]
Zone,Meter,InteriorLights:Electricity:Zone:OFFICE_OPEN_7 [J]
Zone,Meter,General:InteriorLights:Electricity:Zone:OFFICE_OPEN_7 [J]
Zone,Meter,Electricity:Zone:OFFICE_PRIVATE_7 [J]
Zone,Meter,InteriorLights:Electricity:Zone:OFFICE_PRIVATE_7 [J]
Zone,Meter,General:InteriorLights:Electricity:Zone:OFFICE_PRIVATE_7 [J]
Zone,Meter,Electricity:Zone:LOBBY_8 [J]
Zone,Meter,InteriorLights:Electricity:Zone:LOBBY_8 [J]
Zone,Meter,General:InteriorLights:Electricity:Zone:LOBBY_8 [J]
Zone,Meter,Electricity:Zone:CONFERENCE_8 [J]
Zone,Meter,InteriorLights:Electricity:Zone:CONFERENCE_8 [J]
Zone,Meter,General:InteriorLights:Electricity:Zone:CONFERENCE_8 [J]
Zone,Meter,Electricity:Zone:BREAK_ROOM_8 [J]
Zone,Meter,InteriorLights:Electricity:Zone:BREAK_ROOM_8 [J]
Zone,Meter,General:InteriorLights:Electricity:Zone:BREAK_ROOM_8 [J]
Zone,Meter,Electricity:Zone:STORAGE_8 [J]
Zone,Meter,InteriorLights:Electricity:Zone:STORAGE_8 [J]
Zone,Meter,General:InteriorLights:Electricity:Zone:STORAGE_8 [J]
Zone,Meter,Electricity:Zone:MECHANICAL_9 [J]
Zone,Meter,InteriorLights:Electricity:Zone:MECHANICAL_9 [J]
Zone,Meter,General:InteriorLights:Electricity:Zone:MECHANICAL_9 [J]
Zone,Meter,Electricity:Zone:STORAGE_9 [J]
Zone,Meter,InteriorLights:Electricity:Zone:STORAGE_9 [J]
Zone,Meter,General:InteriorLights:Electricity:Zone:STORAGE_9 [J]
Zone,Meter,Electricity:Zone:LOBBY_10 [J]
Zone,Meter,InteriorLights:Electricity:Zone:LOBBY_10 [J]
Zone,Meter,General:InteriorLights:Electricity:Zone:LOBBY_10 [J]
Zone,Meter,Electricity:Zone:CONFERENCE_10 [J]
Zone,Meter,InteriorLights:Electricity:Zone:CONFERENCE_10 [J]
Zone,Meter,General:InteriorLights:Electricity:Zone:CONFERENCE_10 [J]
Zone,Meter,Electricity:Zone:LOBBY_11 [J]
Zone,Meter,InteriorLights:Electricity:Zone:LOBBY_11 [J]
Zone,Meter,General:InteriorLights:Electricity:Zone:LOBBY_11 [J]
Zone,Meter,Electricity:Zone:BREAK_ROOM_11 [J]
Zone,Meter,InteriorLights:Electricity:Zone:BREAK_ROOM_11 [J]
Zone,Meter,General:InteriorLights:Electricity:Zone:BREAK_ROOM_11 [J]
Zone,Meter,Electricity:Zone:MECHANICAL_11 [J]
Zone,Meter,InteriorLights:Electricity:Zone:MECHANICAL_11 [J]
Zone,Meter,General:InteriorLights:Electricity:Zone:MECHANICAL_11 [J]
Zone,Meter,Electricity:Zone:OFFICE_PRIVATE_11 [J]
Zone,Meter,InteriorLights:Electricity:Zone:OFFICE_PRIVATE_11 [J]
Zone,Meter,General:InteriorLights:Electricity:Zone:OFFICE_PRIVATE_11 [J]
Zone,Meter,Electricity:Zone:BREAK_ROOM_12 [J]
Zone,Meter,InteriorLights:Electricity:Zone:BREAK_ROOM_12 [J]
Zone,Meter,General:InteriorLights:Electricity:Zone:BREAK_ROOM_12 [J]
Zone,Meter,Electricity:Zone:MECHANICAL_12 [J]
Zone,Meter,InteriorLights:Electricity:Zone:MECHANICAL_12 [J]
Zone,Meter,General:InteriorLights:Electricity:Zone:MECHANICAL_12 [J]
Zone,Meter,Electricity:Zone:OFFICE_PRIVATE_12 [J]
Zone,Meter,InteriorLights:Electricity:Zone:OFFICE_PRIVATE_12 [J]
Zone,Meter,General:InteriorLights:Electricity:Zone:OFFICE_PRIVATE_12 [J]
Zone,Meter,Electricity:Zone:MECHANICAL_13 [J]
Zone,Meter,InteriorLights:Electricity:Zone:MECHANICAL_13 [J]
Zone,Meter,General:InteriorLights:Electricity:Zone:MECHANICAL_13 [J]
Zone,Meter,Electricity:Zone:OFFICE_PRIVATE_13 [J]
Zone,Meter,InteriorLights:Electricity:Zone:OFFICE_PRIVATE_13 [J]
Zone,Meter,General:InteriorLights:Electricity:Zone:OFFICE_PRIVATE_13 [J]
Zone,Meter,Electricity:Zone:STORAGE_13 [J]
Zone,Meter,InteriorLights:Electricity:Zone:STORAGE_13 [J]
Zone,Meter,General:InteriorLights:Electricity:Zone:STORAGE_13 [J]
Zone,Meter,Electricity:Zone:BREAK_ROOM_14 [J]
Zone,Meter,InteriorLights:Electricity:Zone:BREAK_ROOM_14 [J]
Zone,Meter,General:InteriorLights:Electricity:Zone:BREAK_ROOM_14 [J]
Zone,Meter,Electricity:Zone:STORAGE_14 [J]
Zone,Meter,InteriorLights:Electricity:Zone:STORAGE_14 [J]
Zone,Meter,General:InteriorLights:Electricity:Zone:STORAGE_14 [J]
Zone,Meter,Electricity:Zone:MECHANICAL_15 [J]
Zone,Meter,InteriorLights:Electricity:Zone:MECHANICAL_15 [J]
Zone,Meter,General:InteriorLights:Electricity:Zone:MECHANICAL_15 [J]
Zone,Meter,Electricity:Zone:OFFICE_PRIVATE_15 [J]
Zone,Meter,InteriorLights:Electricity:Zone:OFFICE_PRIVATE_15 [J]
Zone,Meter,General:InteriorLights:Electricity:Zone:OFFICE_PRIVATE_15 [J]
Zone,Meter,Electricity:Zone:STORAGE_15 [J]
Zone,Meter,InteriorLights:Electricity:Zone:STORAGE_15 [J]
Zone,Meter,General:InteriorLights:Electricity:Zone:STORAGE_15 [J]
Zone,Meter,Electricity:Zone:OFFICE_PRIVATE_16 [J]
Zone,Meter,InteriorLights:Electricity:Zone:OFFICE_PRIVATE_16 [J]
Zone,Meter,General:InteriorLights:Electricity:Zone:OFFICE_PRIVATE_16 [J]
Zone,Meter,Electricity:Zone:CONFERENCE_17 [J]
Zone,Meter,InteriorLights:Electricity:Zone:CONFERENCE_17 [J]
Zone,Meter,General:InteriorLights:Electricity:Zone:CONFERENCE_17 [J]
Zone,Meter,Electricity:Zone:MECHANICAL_17 [J]
Zone,Meter,InteriorLights:Electricity:Zone:MECHANICAL_17 [J]
Zone,Meter,General:InteriorLights:Electricity:Zone:MECHANICAL_17 [J]
Zone,Meter,Electricity:Zone:OFFICE_PRIVATE_17 [J]
Zone,Meter,InteriorLights:Electricity:Zone:OFFICE_PRIVATE_17 [J]
Zone,Meter,General:InteriorLights:Electricity:Zone:OFFICE_PRIVATE_17 [J]
Zone,Meter,Electricity:Zone:STORAGE_17 [J]
Zone,Meter,InteriorLights:Electricity:Zone:STORAGE_17 [J]
Zone,Meter,General:InteriorLights:Electricity:Zone:STORAGE_17 [J]
Zone,Meter,Electricity:Zone:LOBBY_18 [J]
Zone,Meter,InteriorLights:Electricity:Zone:LOBBY_18 [J]
Zone,Meter,General:InteriorLights:Electricity:Zone:LOBBY_18 [J]
Zone,Meter,Electricity:Zone:MECHANICAL_18 [J]
Zone,Meter,InteriorLights:Electricity:Zone:MECHANICAL_18 [J]
Zone,Meter,General:InteriorLights:Electricity:Zone:MECHANICAL_18 [J]
Zone,Meter,Electricity:Zone:OFFICE_PRIVATE_18 [J]
Zone,Meter,InteriorLights:Electricity:Zone:OFFICE_PRIVATE_18 [J]
Zone,Meter,General:InteriorLights:Electricity:Zone:OFFICE_PRIVATE_18 [J]
Zone,Meter,Electricity:Zone:STORAGE_18 [J]
Zone,Meter,InteriorLights:Electricity:Zone:STORAGE_18 [J]
Zone,Meter,General:InteriorLights:Electricity:Zone:STORAGE_18 [J]
Zone,Meter,Electricity:Zone:MECHANICAL_19 [J]
Zone,Meter,InteriorLights:Electricity:Zone:MECHANICAL_19 [J]
Zone,Meter,General:InteriorLights:Electricity:Zone:MECHANICAL_19 [J]
Zone,Meter,Electricity:Zone:OFFICE_PRIVATE_19 [J]
Zone,Meter,InteriorLights:Electricity:Zone:OFFICE_PRIVATE_19 [J]
Zone,Meter,General:InteriorLights:Electricity:Zone:OFFICE_PRIVATE_19 [J]
Zone,Meter,Electricity:Zone:STORAGE_19 [J]
Zone,Meter,InteriorLights:Electricity:Zone:STORAGE_19 [J]
Zone,Meter,General:InteriorLights:Electricity:Zone:STORAGE_19 [J]
Zone,Meter,Electricity:Zone:CONFERENCE_20 [J]
Zone,Meter,InteriorLights:Electricity:Zone:CONFERENCE_20 [J]
Zone,Meter,General:InteriorLights:Electricity:Zone:CONFERENCE_20 [J]
Zone,Meter,Electricity:Zone:BREAK_ROOM_21 [J]
Zone,Meter,InteriorLights:Electricity:Zone:BREAK_ROOM_21 [J]
Zone,Meter,General:InteriorLights:Electricity:Zone:BREAK_ROOM_21 [J]
Zone,Meter,Electricity:Zone:MECHANICAL_21 [J]
Zone,Meter,InteriorLights:Electricity:Zone:MECHANICAL_21 [J]
Zone,Meter,General:InteriorLights:Electricity:Zone:MECHANICAL_21 [J]
Zone,Meter,Electricity:Zone:LOBBY_22 [J]
Zone,Meter,InteriorLights:Electricity:Zone:LOBBY_22 [J]
Zone,Meter,General:InteriorLights:Electricity:Zone:LOBBY_22 [J]
Zone,Meter,Electricity:Zone:BREAK_ROOM_22 [J]
Zone,Meter,InteriorLights:Electricity:Zone:BREAK_ROOM_22 [J]
Zone,Meter,General:InteriorLights:Electricity:Zone:BREAK_ROOM_22 [J]
Zone,Meter,Electricity:Zone:OFFICE_PRIVATE_22 [J]
Zone,Meter,InteriorLights:Electricity:Zone:OFFICE_PRIVATE_22 [J]
Zone,Meter,General:InteriorLights:Electricity:Zone:OFFICE_PRIVATE_22 [J]
Zone,Meter,Electricity:Zone:STORAGE_22 [J]
Zone,Meter,InteriorLights:Electricity:Zone:STORAGE_22 [J]
Zone,Meter,General:InteriorLights:Electricity:Zone:STORAGE_22 [J]
Zone,Meter,Electricity:Zone:LOBBY_23 [J]
Zone,Meter,InteriorLights:Electricity:Zone:LOBBY_23 [J]
Zone,Meter,General:InteriorLights:Electricity:Zone:LOBBY_23 [J]
Zone,Meter,Electricity:Zone:BREAK_ROOM_23 [J]
Zone,Meter,InteriorLights:Electricity:Zone:BREAK_ROOM_23 [J]
Zone,Meter,General:InteriorLights:Electricity:Zone:BREAK_ROOM_23 [J]
Zone,Meter,Electricity:Zone:OFFICE_PRIVATE_23 [J]
Zone,Meter,InteriorLights:Electricity:Zone:OFFICE_PRIVATE_23 [J]
Zone,Meter,General:InteriorLights:Electricity:Zone:OFFICE_PRIVATE_23 [J]
Zone,Meter,Electricity:Zone:STORAGE_23 [J]
Zone,Meter,InteriorLights:Electricity:Zone:STORAGE_23 [J]
Zone,Meter,General:InteriorLights:Electricity:Zone:STORAGE_23 [J]
Zone,Meter,Electricity:Zone:MECHANICAL_24 [J]
Zone,Meter,InteriorLights:Electricity:Zone:MECHANICAL_24 [J]
Zone,Meter,General:InteriorLights:Electricity:Zone:MECHANICAL_24 [J]
Zone,Meter,Electricity:Zone:OFFICE_PRIVATE_24 [J]
Zone,Meter,InteriorLights:Electricity:Zone:OFFICE_PRIVATE_24 [J]
Zone,Meter,General:InteriorLights:Electricity:Zone:OFFICE_PRIVATE_24 [J]
Zone,Meter,Electricity:Zone:STORAGE_24 [J]
Zone,Meter,InteriorLights:Electricity:Zone:STORAGE_24 [J]
Zone,Meter,General:InteriorLights:Electricity:Zone:STORAGE_24 [J]
Zone,Meter,Electricity:Zone:CONFERENCE_25 [J]
Zone,Meter,InteriorLights:Electricity:Zone:CONFERENCE_25 [J]
Zone,Meter,General:InteriorLights:Electricity:Zone:CONFERENCE_25 [J]
Zone,Meter,Electricity:Zone:OFFICE_PRIVATE_25 [J]
Zone,Meter,InteriorLights:Electricity:Zone:OFFICE_PRIVATE_25 [J]
Zone,Meter,General:InteriorLights:Electricity:Zone:OFFICE_PRIVATE_25 [J]
Zone,Meter,Electricity:Zone:CONFERENCE_26 [J]
Zone,Meter,InteriorLights:Electricity:Zone:CONFERENCE_26 [J]
Zone,Meter,General:InteriorLights:Electricity:Zone:CONFERENCE_26 [J]
Zone,Meter,Electricity:Zone:MECHANICAL_26 [J]
Zone,Meter,InteriorLights:Electricity:Zone:MECHANICAL_26 [J]
Zone,Meter,General:InteriorLights:Electricity:Zone:MECHANICAL_26 [J]
Zone,Meter,Electricity:Zone:STORAGE_26 [J]
Zone,Meter,InteriorLights:Electricity:Zone:STORAGE_26 [J]
Zone,Meter,General:InteriorLights:Electricity:Zone:STORAGE_26 [J]
Zone,Meter,Electricity:Zone:MECHANICAL_27 [J]
Zone,Meter,InteriorLights:Electricity:Zone:MECHANICAL_27 [J]
Zone,Meter,General:InteriorLights:Electricity:Zone:MECHANICAL_27 [J]
Zone,Meter,Electricity:Zone:OFFICE_PRIVATE_27 [J]
Zone,Meter,InteriorLights:Electricity:Zone:OFFICE_PRIVATE_27 [J]
Zone,Meter,General:InteriorLights:Electricity:Zone:OFFICE_PRIVATE_27 [J]
Zone,Meter,Electricity:Zone:CONFERENCE_28 [J]
Zone,Meter,InteriorLights:Electricity:Zone:CONFERENCE_28 [J]
Zone,Meter,General:InteriorLights:Electricity:Zone:CONFERENCE_28 [J]
Zone,Meter,Electricity:Zone:BREAK_ROOM_28 [J]
Zone,Meter,InteriorLights:Electricity:Zone:BREAK_ROOM_28 [J]
Zone,Meter,General:InteriorLights:Electricity:Zone:BREAK_ROOM_28 [J]
Zone,Meter,Electricity:Zone:STORAGE_28 [J]
Zone,Meter,InteriorLights:Electricity:Zone:STORAGE_28 [J]
Zone,Meter,General:InteriorLights:Electricity:Zone:STORAGE_28 [J]
Zone,Meter,Electricity:Zone:BREAK_ROOM_30 [J]
Zone,Meter,InteriorLights:Electricity:Zone:BREAK_ROOM_30 [J]
Zone,Meter,General:InteriorLights:Electricity:Zone:BREAK_ROOM_30 [J]
Zone,Meter,Electricity:Zone:MECHANICAL_30 [J]
Zone,Meter,InteriorLights:Electricity:Zone:MECHANICAL_30 [J]
Zone,Meter,General:InteriorLights:Electricity:Zone:MECHANICAL_30 [J]
Zone,Meter,Electricity:Zone:OFFICE_PRIVATE_30 [J]
Zone,Meter,InteriorLights:Electricity:Zone:OFFICE_PRIVATE_30 [J]
Zone,Meter,General:InteriorLights:Electricity:Zone:OFFICE_PRIVATE_30 [J]
Zone,Meter,Electricity:Zone:CONFERENCE_31 [J]
Zone,Meter,InteriorLights:Electricity:Zone:CONFERENCE_31 [J]
Zone,Meter,General:InteriorLights:Electricity:Zone:CONFERENCE_31 [J]
Zone,Meter,Electricity:Zone:OFFICE_PRIVATE_31 [J]
Zone,Meter,InteriorLights:Electricity:Zone:OFFICE_PRIVATE_31 [J]
Zone,Meter,General:InteriorLights:Electricity:Zone:OFFICE_PRIVATE_31 [J]
Zone,Meter,Electricity:Zone:MECHANICAL_32 [J]
Zone,Meter,InteriorLights:Electricity:Zone:MECHANICAL_32 [J]
Zone,Meter,General:InteriorLights:Electricity:Zone:MECHANICAL_32 [J]
Zone,Meter,Electricity:Zone:OFFICE_PRIVATE_33 [J]
Zone,Meter,InteriorLights:Electricity:Zone:OFFICE_PRIVATE_33 [J]
Zone,Meter,General:InteriorLights:Electricity:Zone:OFFICE_PRIVATE_33 [J]
Zone,Meter,Electricity:Zone:STORAGE_33 [J]
Zone,Meter,InteriorLights:Electricity:Zone:STORAGE_33 [J]
Zone,Meter,General:InteriorLights:Electricity:Zone:STORAGE_33 [J]
Zone,Meter,Electricity:Zone:BREAK_ROOM_34 [J]
Zone,Meter,InteriorLights:Electricity:Zone:BREAK_ROOM_34 [J]
Zone,Meter,General:InteriorLights:Electricity:Zone:BREAK_ROOM_34 [J]
Zone,Meter,Electricity:Zone:OFFICE_PRIVATE_34 [J]
Zone,Meter,InteriorLights:Electricity:Zone:OFFICE_PRIVATE_34 [J]
Zone,Meter,General:InteriorLights:Electricity:Zone:OFFICE_PRIVATE_34 [J]
Zone,Meter,Electricity:Zone:LOBBY_35 [J]
Zone,Meter,InteriorLights:Electricity:Zone:LOBBY_35 [J]
Zone,Meter,General:InteriorLights:Electricity:Zone:LOBBY_35 [J]
Zone,Meter,Electricity:Zone:BREAK_ROOM_35 [J]
Zone,Meter,InteriorLights:Electricity:Zone:BREAK_ROOM_35 [J]
Zone,Meter,General:InteriorLights:Electricity:Zone:BREAK_ROOM_35 [J]
Zone,Meter,Electricity:Zone:MECHANICAL_35 [J]
Zone,Meter,InteriorLights:Electricity:Zone:MECHANICAL_35 [J]
Zone,Meter,General:InteriorLights:Electricity:Zone:MECHANICAL_35 [J]
Zone,Meter,Electricity:Zone:CONFERENCE_36 [J]
Zone,Meter,InteriorLights:Electricity:Zone:CONFERENCE_36 [J]
Zone,Meter,General:InteriorLights:Electricity:Zone:CONFERENCE_36 [J]
Zone,Meter,Electricity:Zone:BREAK_ROOM_36 [J]
Zone,Meter,InteriorLights:Electricity:Zone:BREAK_ROOM_36 [J]
Zone,Meter,General:InteriorLights:Electricity:Zone:BREAK_ROOM_36 [J]
Zone,Meter,Electricity:Zone:OFFICE_PRIVATE_36 [J]
Zone,Meter,InteriorLights:Electricity:Zone:OFFICE_PRIVATE_36 [J]
Zone,Meter,General:InteriorLights:Electricity:Zone:OFFICE_PRIVATE_36 [J]
Zone,Meter,Electricity:Zone:STORAGE_36 [J]
Zone,Meter,InteriorLights:Electricity:Zone:STORAGE_36 [J]
Zone,Meter,General:InteriorLights:Electricity:Zone:STORAGE_36 [J]
Zone,Meter,Electricity:Zone:CONFERENCE_37 [J]
Zone,Meter,InteriorLights:Electricity:Zone:CONFERENCE_37 [J]
Zone,Meter,General:InteriorLights:Electricity:Zone:CONFERENCE_37 [J]
Zone,Meter,Electricity:Zone:BREAK_ROOM_37 [J]
Zone,Meter,InteriorLights:Electricity:Zone:BREAK_ROOM_37 [J]
Zone,Meter,General:InteriorLights:Electricity:Zone:BREAK_ROOM_37 [J]
Zone,Meter,Electricity:Zone:LOBBY_38 [J]
Zone,Meter,InteriorLights:Electricity:Zone:LOBBY_38 [J]
Zone,Meter,General:InteriorLights:Electricity:Zone:LOBBY_38 [J]
Zone,Meter,Electricity:Zone:MECHANICAL_38 [J]
Zone,Meter,InteriorLights:Electricity:Zone:MECHANICAL_38 [J]
Zone,Meter,General:InteriorLights:Electricity:Zone:MECHANICAL_38 [J]
Zone,Meter,Electricity:Zone:OFFICE_PRIVATE_38 [J]
Zone,Meter,InteriorLights:Electricity:Zone:OFFICE_PRIVATE_38 [J]
Zone,Meter,General:InteriorLights:Electricity:Zone:OFFICE_PRIVATE_38 [J]
Zone,Meter,Electricity:Zone:STORAGE_38 [J]
Zone,Meter,InteriorLights:Electricity:Zone:STORAGE_38 [J]
Zone,Meter,General:InteriorLights:Electricity:Zone:STORAGE_38 [J]
Zone,Meter,Electricity:Zone:CONFERENCE_39 [J]
Zone,Meter,InteriorLights:Electricity:Zone:CONFERENCE_39 [J]
Zone,Meter,General:InteriorLights:Electricity:Zone:CONFERENCE_39 [J]
Zone,Meter,Electricity:Zone:BREAK_ROOM_39 [J]
Zone,Meter,InteriorLights:Electricity:Zone:BREAK_ROOM_39 [J]
Zone,Meter,General:InteriorLights:Electricity:Zone:BREAK_ROOM_39 [J]
Zone,Meter,Electricity:Zone:STORAGE_39 [J]
Zone,Meter,InteriorLights:Electricity:Zone:STORAGE_39 [J]
Zone,Meter,General:InteriorLights:Electricity:Zone:STORAGE_39 [J]
Zone,Meter,Electricity:Zone:BREAK_ROOM_40 [J]
Zone,Meter,InteriorLights:Electricity:Zone:BREAK_ROOM_40 [J]
Zone,Meter,General:InteriorLights:Electricity:Zone:BREAK_ROOM_40 [J]
Zone,Meter,Electricity:Zone:OFFICE_PRIVATE_40 [J]
Zone,Meter,InteriorLights:Electricity:Zone:OFFICE_PRIVATE_40 [J]
Zone,Meter,General:InteriorLights:Electricity:Zone:OFFICE_PRIVATE_40 [J]
Zone,Meter,Electricity:Zone:STORAGE_40 [J]
Zone,Meter,InteriorLights:Electricity:Zone:STORAGE_40 [J]
Zone,Meter,General:InteriorLights:Electricity:Zone:STORAGE_40 [J]
Zone,Meter,Electricity:Zone:LOBBY_41 [J]
Zone,Meter,InteriorLights:Electricity:Zone:LOBBY_41 [J]
Zone,Meter,General:InteriorLights:Electricity:Zone:LOBBY_41 [J]
Zone,Meter,Electricity:Zone:BREAK_ROOM_41 [J]
Zone,Meter,InteriorLights:Electricity:Zone:BREAK_ROOM_41 [J]
Zone,Meter,General:InteriorLights:Electricity:Zone:BREAK_ROOM_41 [J]
Zone,Meter,Electricity:Zone:STORAGE_41 [J]
Zone,Meter,InteriorLights:Electricity:Zone:STORAGE_41 [J]
Zone,Meter,General:InteriorLights:Electricity:Zone:STORAGE_41 [J]
Zone,Meter,Electricity:Zone:LOBBY_42 [J]
Zone,Meter,InteriorLights:Electricity:Zone:LOBBY_42 [J]
Zone,Meter,General:InteriorLights:Electricity:Zone:LOBBY_42 [J]
Zone,Meter,Electricity:Zone:MECHANICAL_42 [J]
Zone,Meter,InteriorLights:Electricity:Zone:MECHANICAL_42 [J]
Zone,Meter,General:InteriorLights:Electricity:Zone:MECHANICAL_42 [J]
Zone,Meter,Electricity:Zone:OFFICE_PRIVATE_42 [J]
Zone,Meter,InteriorLights:Electricity:Zone:OFFICE_PRIVATE_42 [J]
Zone,Meter,General:InteriorLights:Electricity:Zone:OFFICE_PRIVATE_42 [J]
Zone,Meter,Electricity:Zone:LOBBY_43 [J]
Zone,Meter,InteriorLights:Electricity:Zone:LOBBY_43 [J]
Zone,Meter,General:InteriorLights:Electricity:Zone:LOBBY_43 [J]
Zone,Meter,Electricity:Zone:MECHANICAL_43 [J]
Zone,Meter,InteriorLights:Electricity:Zone:MECHANICAL_43 [J]
Zone,Meter,General:InteriorLights:Electricity:Zone:MECHANICAL_43 [J]
Zone,Meter,Electricity:Zone:OFFICE_PRIVATE_43 [J]
Zone,Meter,InteriorLights:Electricity:Zone:OFFICE_PRIVATE_43 [J]
Zone,Meter,General:InteriorLights:Electricity:Zone:OFFICE_PRIVATE_43 [J]
Zone,Meter,Electricity:Zone:BREAK_ROOM_44 [J]
Zone,Meter,InteriorLights:Electricity:Zone:BREAK_ROOM_44 [J]
Zone,Meter,General:InteriorLights:Electricity:Zone:BREAK_ROOM_44 [J]
Zone,Meter,Electricity:Zone:OFFICE_PRIVATE_44 [J]
Zone,Meter,InteriorLights:Electricity:Zone:OFFICE_PRIVATE_44 [J]
Zone,Meter,General:InteriorLights:Electricity:Zone:OFFICE_PRIVATE_44 [J]
Zone,Meter,Electricity:Zone:STORAGE_44 [J]
Zone,Meter,InteriorLights:Electricity:Zone:STORAGE_44 [J]
Zone,Meter,General:InteriorLights:Electricity:Zone:STORAGE_44 [J]
Zone,Meter,Electricity:Zone:CONFERENCE_45 [J]
Zone,Meter,InteriorLights:Electricity:Zone:CONFERENCE_45 [J]
Zone,Meter,General:InteriorLights:Electricity:Zone:CONFERENCE_45 [J]
Zone,Meter,Electricity:Zone:MECHANICAL_45 [J]
Zone,Meter,InteriorLights:Electricity:Zone:MECHANICAL_45 [J]
Zone,Meter,General:InteriorLights:Electricity:Zone:MECHANICAL_45 [J]
Zone,Meter,Electricity:Zone:OFFICE_PRIVATE_45 [J]
Zone,Meter,InteriorLights:Electricity:Zone:OFFICE_PRIVATE_45 [J]
Zone,Meter,General:InteriorLights:Electricity:Zone:OFFICE_PRIVATE_45 [J]
Zone,Meter,Electricity:Zone:LOBBY_46 [J]
Zone,Meter,InteriorLights:Electricity:Zone:LOBBY_46 [J]
Zone,Meter,General:InteriorLights:Electricity:Zone:LOBBY_46 [J]
Zone,Meter,Electricity:Zone:CONFERENCE_46 [J]
Zone,Meter,InteriorLights:Electricity:Zone:CONFERENCE_46 [J]
Zone,Meter,General:InteriorLights:Electricity:Zone:CONFERENCE_46 [J]
Zone,Meter,Electricity:Zone:OFFICE_PRIVATE_46 [J]
Zone,Meter,InteriorLights:Electricity:Zone:OFFICE_PRIVATE_46 [J]
Zone,Meter,General:InteriorLights:Electricity:Zone:OFFICE_PRIVATE_46 [J]
Zone,Meter,Electricity:Zone:STORAGE_47 [J]
Zone,Meter,InteriorLights:Electricity:Zone:STORAGE_47 [J]
Zone,Meter,General:InteriorLights:Electricity:Zone:STORAGE_47 [J]
Zone,Meter,Electricity:Zone:LOBBY_48 [J]
Zone,Meter,InteriorLights:Electricity:Zone:LOBBY_48 [J]
Zone,Meter,General:InteriorLights:Electricity:Zone:LOBBY_48 [J]
Zone,Meter,Electricity:Zone:CONFERENCE_48 [J]
Zone,Meter,InteriorLights:Electricity:Zone:CONFERENCE_48 [J]
Zone,Meter,General:InteriorLights:Electricity:Zone:CONFERENCE_48 [J]
Zone,Meter,Electricity:Zone:OFFICE_PRIVATE_48 [J]
Zone,Meter,InteriorLights:Electricity:Zone:OFFICE_PRIVATE_48 [J]
Zone,Meter,General:InteriorLights:Electricity:Zone:OFFICE_PRIVATE_48 [J]
Zone,Meter,Electricity:Zone:BREAK_ROOM_49 [J]
Zone,Meter,InteriorLights:Electricity:Zone:BREAK_ROOM_49 [J]
Zone,Meter,General:InteriorLights:Electricity:Zone:BREAK_ROOM_49 [J]
Zone,Meter,Electricity:Zone:MECHANICAL_49 [J]
Zone,Meter,InteriorLights:Electricity:Zone:MECHANICAL_49 [J]
Zone,Meter,General:InteriorLights:Electricity:Zone:MECHANICAL_49 [J]
Zone,Meter,Electricity:Zone:CONFERENCE_50 [J]
Zone,Meter,InteriorLights:Electricity:Zone:CONFERENCE_50 [J]
Zone,Meter,General:InteriorLights:Electricity:Zone:CONFERENCE_50 [J]
Zone,Meter,Electricity:Zone:MECHANICAL_50 [J]
Zone,Meter,InteriorLights:Electricity:Zone:MECHANICAL_50 [J]
Zone,Meter,General:InteriorLights:Electricity:Zone:MECHANICAL_50 [J]
Zone,Meter,Electricity:Zone:BREAK_ROOM_51 [J]
Zone,Meter,InteriorLights:Electricity:Zone:BREAK_ROOM_51 [J]
Zone,Meter,General:InteriorLights:Electricity:Zone:BREAK_ROOM_51 [J]
Zone,Meter,Electricity:Zone:MECHANICAL_51 [J]
Zone,Meter,InteriorLights:Electricity:Zone:MECHANICAL_51 [J]
Zone,Meter,General:InteriorLights:Electricity:Zone:MECHANICAL_51 [J]
Zone,Meter,Electricity:Zone:OFFICE_PRIVATE_51 [J]
Zone,Meter,InteriorLights:Electricity:Zone:OFFICE_PRIVATE_51 [J]
Zone,Meter,General:InteriorLights:Electricity:Zone:OFFICE_PRIVATE_51 [J]
Zone,Meter,Electricity:Zone:OFFICE_OPEN_52 [J]
Zone,Meter,InteriorLights:Electricity:Zone:OFFICE_OPEN_52 [J]
Zone,Meter,General:InteriorLights:Electricity:Zone:OFFICE_OPEN_52 [J]
Zone,Meter,Electricity:Zone:OFFICE_PRIVATE_52 [J]
Zone,Meter,InteriorLights:Electricity:Zone:OFFICE_PRIVATE_52 [J]
Zone,Meter,General:InteriorLights:Electricity:Zone:OFFICE_PRIVATE_52 [J]
Zone,Meter,Electricity:Zone:STORAGE_52 [J]
Zone,Meter,InteriorLights:Electricity:Zone:STORAGE_52 [J]
Zone,Meter,General:InteriorLights:Electricity:Zone:STORAGE_52 [J]
Zone,Meter,Electricity:Zone:CONFERENCE_53 [J]
Zone,Meter,InteriorLights:Electricity:Zone:CONFERENCE_53 [J]
Zone,Meter,General:InteriorLights:Electricity:Zone:CONFERENCE_53 [J]
Zone,Meter,Electricity:Zone:OFFICE_PRIVATE_53 [J]
Zone,Meter,InteriorLights:Electricity:Zone:OFFICE_PRIVATE_53 [J]
Zone,Meter,General:InteriorLights:Electricity:Zone:OFFICE_PRIVATE_53 [J]
Zone,Meter,Electricity:Zone:BREAK_ROOM_54 [J]
Zone,Meter,InteriorLights:Electricity:Zone:BREAK_ROOM_54 [J]
Zone,Meter,General:InteriorLights:Electricity:Zone:BREAK_ROOM_54 [J]
Zone,Meter,Electricity:Zone:OFFICE_OPEN_55 [J]
Zone,Meter,InteriorLights:Electricity:Zone:OFFICE_OPEN_55 [J]
Zone,Meter,General:InteriorLights:Electricity:Zone:OFFICE_OPEN_55 [J]
Zone,Meter,Electricity:Zone:OFFICE_PRIVATE_55 [J]
Zone,Meter,InteriorLights:Electricity:Zone:OFFICE_PRIVATE_55 [J]
Zone,Meter,General:InteriorLights:Electricity:Zone:OFFICE_PRIVATE_55 [J]
Zone,Meter,Electricity:Zone:LOBBY_56 [J]
Zone,Meter,InteriorLights:Electricity:Zone:LOBBY_56 [J]
Zone,Meter,General:InteriorLights:Electricity:Zone:LOBBY_56 [J]
Zone,Meter,Electricity:Zone:CONFERENCE_56 [J]
Zone,Meter,InteriorLights:Electricity:Zone:CONFERENCE_56 [J]
Zone,Meter,General:InteriorLights:Electricity:Zone:CONFERENCE_56 [J]
Zone,Meter,Electricity:Zone:BREAK_ROOM_56 [J]
Zone,Meter,InteriorLights:Electricity:Zone:BREAK_ROOM_56 [J]
Zone,Meter,General:InteriorLights:Electricity:Zone:BREAK_ROOM_56 [J]
Zone,Meter,Electricity:Zone:OFFICE_PRIVATE_56 [J]
Zone,Meter,InteriorLights:Electricity:Zone:OFFICE_PRIVATE_56 [J]
Zone,Meter,General:InteriorLights:Electricity:Zone:OFFICE_PRIVATE_56 [J]
Zone,Meter,Electricity:Zone:OFFICE_OPEN_57 [J]
Zone,Meter,InteriorLights:Electricity:Zone:OFFICE_OPEN_57 [J]
Zone,Meter,General:InteriorLights:Electricity:Zone:OFFICE_OPEN_57 [J]
Zone,Meter,Electricity:Zone:STORAGE_57 [J]
Zone,Meter,InteriorLights:Electricity:Zone:STORAGE_57 [J]
Zone,Meter,General:InteriorLights:Electricity:Zone:STORAGE_57 [J]
Zone,Meter,Electricity:Zone:CONFERENCE_58 [J]
Zone,Meter,InteriorLights:Electricity:Zone:CONFERENCE_58 [J]
Zone,Meter,General:InteriorLights:Electricity:Zone:CONFERENCE_58 [J]
Zone,Meter,Electricity:Zone:MECHANICAL_58 [J]
Zone,Meter,InteriorLights:Electricity:Zone:MECHANICAL_58 [J]
Zone,Meter,General:InteriorLights:Electricity:Zone:MECHANICAL_58 [J]
Zone,Meter,Electricity:Zone:OFFICE_PRIVATE_58 [J]
Zone,Meter,InteriorLights:Electricity:Zone:OFFICE_PRIVATE_58 [J]
Zone,Meter,General:InteriorLights:Electricity:Zone:OFFICE_PRIVATE_58 [J]
Zone,Meter,Electricity:Zone:OFFICE_OPEN_59 [J]
Zone,Meter,InteriorLights:Electricity:Zone:OFFICE_OPEN_59 [J]
Zone,Meter,General:InteriorLights:Electricity:Zone:OFFICE_OPEN_59 [J]
Zone,Meter,Electricity:Zone:OFFICE_PRIVATE_59 [J]
Zone,Meter,InteriorLights:Electricity:Zone:OFFICE_PRIVATE_59 [J]
Zone,Meter,General:InteriorLights:Electricity:Zone:OFFICE_PRIVATE_59 [J]
Zone,Meter,Electricity:Zone:STORAGE_59 [J]
Zone,Meter,InteriorLights:Electricity:Zone:STORAGE_59 [J]
Zone,Meter,General:InteriorLights:Electricity:Zone:STORAGE_59 [J]
Zone,Meter,Electricity:Zone:CONFERENCE_60 [J]
Zone,Meter,InteriorLights:Electricity:Zone:CONFERENCE_60 [J]
Zone,Meter,General:InteriorLights:Electricity:Zone:CONFERENCE_60 [J]
Zone,Meter,Electricity:Zone:STORAGE_60 [J]
Zone,Meter,InteriorLights:Electricity:Zone:STORAGE_60 [J]
Zone,Meter,General:InteriorLights:Electricity:Zone:STORAGE_60 [J]
Zone,Meter,Electricity:Zone:BREAK_ROOM_61 [J]
Zone,Meter,InteriorLights:Electricity:Zone:BREAK_ROOM_61 [J]
Zone,Meter,General:InteriorLights:Electricity:Zone:BREAK_ROOM_61 [J]
Zone,Meter,Electricity:Zone:BREAK_ROOM_62 [J]
Zone,Meter,InteriorLights:Electricity:Zone:BREAK_ROOM_62 [J]
Zone,Meter,General:InteriorLights:Electricity:Zone:BREAK_ROOM_62 [J]
Zone,Meter,Electricity:Zone:MECHANICAL_62 [J]
Zone,Meter,InteriorLights:Electricity:Zone:MECHANICAL_62 [J]
Zone,Meter,General:InteriorLights:Electricity:Zone:MECHANICAL_62 [J]
Zone,Meter,Electricity:Zone:STORAGE_62 [J]
Zone,Meter,InteriorLights:Electricity:Zone:STORAGE_62 [J]
Zone,Meter,General:InteriorLights:Electricity:Zone:STORAGE_62 [J]
Zone,Meter,Electricity:Zone:OFFICE_OPEN_63 [J]
Zone,Meter,InteriorLights:Electricity:Zone:OFFICE_OPEN_63 [J]
Zone,Meter,General:InteriorLights:Electricity:Zone:OFFICE_OPEN_63 [J]
Zone,Meter,Electricity:Zone:OFFICE_PRIVATE_63 [J]
Zone,Meter,InteriorLights:Electricity:Zone:OFFICE_PRIVATE_63 [J]
Zone,Meter,General:InteriorLights:Electricity:Zone:OFFICE_PRIVATE_63 [J]
Zone,Meter,Electricity:Zone:CONFERENCE_64 [J]
Zone,Meter,InteriorLights:Electricity:Zone:CONFERENCE_64 [J]
Zone,Meter,General:InteriorLights:Electricity:Zone:CONFERENCE_64 [J]
Zone,Meter,Electricity:Zone:BREAK_ROOM_64 [J]
Zone,Meter,InteriorLights:Electricity:Zone:BREAK_ROOM_64 [J]
Zone,Meter,General:InteriorLights:Electricity:Zone:BREAK_ROOM_64 [J]
Zone,Meter,Electricity:Zone:LOBBY_65 [J]
Zone,Meter,InteriorLights:Electricity:Zone:LOBBY_65 [J]
Zone,Meter,General:InteriorLights:Electricity:Zone:LOBBY_65 [J]
Zone,Meter,Electricity:Zone:STORAGE_65 [J]
Zone,Meter,InteriorLights:Electricity:Zone:STORAGE_65 [J]
Zone,Meter,General:InteriorLights:Electricity:Zone:STORAGE_65 [J]
Zone,Meter,Electricity:Zone:MECHANICAL_66 [J]
Zone,Meter,InteriorLights:Electricity:Zone:MECHANICAL_66 [J]
Zone,Meter,General:InteriorLights:Electricity:Zone:MECHANICAL_66 [J]
Zone,Meter,Electricity:Zone:CONFERENCE_67 [J]
Zone,Meter,InteriorLights:Electricity:Zone:CONFERENCE_67 [J]
Zone,Meter,General:InteriorLights:Electricity:Zone:CONFERENCE_67 [J]
Zone,Meter,Electricity:Zone:BREAK_ROOM_67 [J]
Zone,Meter,InteriorLights:Electricity:Zone:BREAK_ROOM_67 [J]
Zone,Meter,General:InteriorLights:Electricity:Zone:BREAK_ROOM_67 [J]
Zone,Meter,Electricity:Zone:STORAGE_67 [J]
Zone,Meter,InteriorLights:Electricity:Zone:STORAGE_67 [J]
Zone,Meter,General:InteriorLights:Electricity:Zone:STORAGE_67 [J]
Zone,Meter,Electricity:Zone:CONFERENCE_68 [J]
Zone,Meter,InteriorLights:Electricity:Zone:CONFERENCE_68 [J]
Zone,Meter,General:InteriorLights:Electricity:Zone:CONFERENCE_68 [J]
Zone,Meter,Electricity:Zone:BREAK_ROOM_68 [J]
Zone,Meter,InteriorLights:Electricity:Zone:BREAK_ROOM_68 [J]
Zone,Meter,General:InteriorLights:Electricity:Zone:BREAK_ROOM_68 [J]
Zone,Meter,Electricity:Zone:STORAGE_68 [J]
Zone,Meter,InteriorLights:Electricity:Zone:STORAGE_68 [J]
Zone,Meter,General:InteriorLights:Electricity:Zone:STORAGE_68 [J]
Zone,Meter,Electricity:Zone:CONFERENCE_69 [J]
Zone,Meter,InteriorLights:Electricity:Zone:CONFERENCE_69 [J]
Zone,Meter,General:InteriorLights:Electricity:Zone:CONFERENCE_69 [J]
Zone,Meter,Electricity:Zone:MECHANICAL_69 [J]
Zone,Meter,InteriorLights:Electricity:Zone:MECHANICAL_69 [J]
Zone,Meter,General:InteriorLights:Electricity:Zone:MECHANICAL_69 [J]
Zone,Meter,Electricity:Zone:OFFICE_PRIVATE_69 [J]
Zone,Meter,InteriorLights:Electricity:Zone:OFFICE_PRIVATE_69 [J]
Zone,Meter,General:InteriorLights:Electricity:Zone:OFFICE_PRIVATE_69 [J]
Zone,Meter,Electricity:Zone:STORAGE_69 [J]
Zone,Meter,InteriorLights:Electricity:Zone:STORAGE_69 [J]
Zone,Meter,General:InteriorLights:Electricity:Zone:STORAGE_69 [J]
Zone,Meter,Electricity:Zone:LOBBY_70 [J]
Zone,Meter,InteriorLights:Electricity:Zone:LOBBY_70 [J]
Zone,Meter,General:InteriorLights:Electricity:Zone:LOBBY_70 [J]
Zone,Meter,Electricity:Zone:BREAK_ROOM_70 [J]
Zone,Meter,InteriorLights:Electricity:Zone:BREAK_ROOM_70 [J]
Zone,Meter,General:InteriorLights:Electricity:Zone:BREAK_ROOM_70 [J]
Zone,Meter,Electricity:Zone:MECHANICAL_70 [J]
Zone,Meter,InteriorLights:Electricity:Zone:MECHANICAL_70 [J]
Zone,Meter,General:InteriorLights:Electricity:Zone:MECHANICAL_70 [J]
Zone,Meter,Electricity:Zone:OFFICE_PRIVATE_70 [J]
Zone,Meter,InteriorLights:Electricity:Zone:OFFICE_PRIVATE_70 [J]
Zone,Meter,General:InteriorLights:Electricity:Zone:OFFICE_PRIVATE_70 [J]
Zone,Meter,Electricity:Zone:STORAGE_70 [J]
Zone,Meter,InteriorLights:Electricity:Zone:STORAGE_70 [J]
Zone,Meter,General:InteriorLights:Electricity:Zone:STORAGE_70 [J]
Zone,Meter,Electricity:Zone:CONFERENCE_71 [J]
Zone,Meter,InteriorLights:Electricity:Zone:CONFERENCE_71 [J]
Zone,Meter,General:InteriorLights:Electricity:Zone:CONFERENCE_71 [J]
Zone,Meter,Electricity:Zone:OFFICE_PRIVATE_71 [J]
Zone,Meter,InteriorLights:Electricity:Zone:OFFICE_PRIVATE_71 [J]
Zone,Meter,General:InteriorLights:Electricity:Zone:OFFICE_PRIVATE_71 [J]
Zone,Meter,Electricity:Zone:OFFICE_PRIVATE_72 [J]
Zone,Meter,InteriorLights:Electricity:Zone:OFFICE_PRIVATE_72 [J]
Zone,Meter,General:InteriorLights:Electricity:Zone:OFFICE_PRIVATE_72 [J]
Zone,Meter,Electricity:Zone:CONFERENCE_73 [J]
Zone,Meter,InteriorLights:Electricity:Zone:CONFERENCE_73 [J]
Zone,Meter,General:InteriorLights:Electricity:Zone:CONFERENCE_73 [J]
Zone,Meter,Electricity:Zone:STORAGE_73 [J]
Zone,Meter,InteriorLights:Electricity:Zone:STORAGE_73 [J]
Zone,Meter,General:InteriorLights:Electricity:Zone:STORAGE_73 [J]
Zone,Meter,Electricity:Zone:LOBBY_74 [J]
Zone,Meter,InteriorLights:Electricity:Zone:LOBBY_74 [J]
Zone,Meter,General:InteriorLights:Electricity:Zone:LOBBY_74 [J]
Zone,Meter,Electricity:Zone:CONFERENCE_74 [J]
Zone,Meter,InteriorLights:Electricity:Zone:CONFERENCE_74 [J]
Zone,Meter,General:InteriorLights:Electricity:Zone:CONFERENCE_74 [J]
Zone,Meter,Electricity:Zone:MECHANICAL_74 [J]
Zone,Meter,InteriorLights:Electricity:Zone:MECHANICAL_74 [J]
Zone,Meter,General:InteriorLights:Electricity:Zone:MECHANICAL_74 [J]
Zone,Meter,Electricity:Zone:STORAGE_74 [J]
Zone,Meter,InteriorLights:Electricity:Zone:STORAGE_74 [J]
Zone,Meter,General:InteriorLights:Electricity:Zone:STORAGE_74 [J]
Zone,Meter,Electricity:Zone:MECHANICAL_75 [J]
Zone,Meter,InteriorLights:Electricity:Zone:MECHANICAL_75 [J]
Zone,Meter,General:InteriorLights:Electricity:Zone:MECHANICAL_75 [J]
Zone,Meter,Electricity:Zone:STORAGE_75 [J]
Zone,Meter,InteriorLights:Electricity:Zone:STORAGE_75 [J]
Zone,Meter,General:InteriorLights:Electricity:Zone:STORAGE_75 [J]
Zone,Meter,Electricity:Zone:STORAGE_76 [J]
Zone,Meter,InteriorLights:Electricity:Zone:STORAGE_76 [J]
Zone,Meter,General:InteriorLights:Electricity:Zone:STORAGE_76 [J]
Zone,Meter,Electricity:Zone:LOBBY_77 [J]
Zone,Meter,InteriorLights:Electricity:Zone:LOBBY_77 [J]
Zone,Meter,General:InteriorLights:Electricity:Zone:LOBBY_77 [J]
Zone,Meter,Electricity:Zone:CONFERENCE_77 [J]
Zone,Meter,InteriorLights:Electricity:Zone:CONFERENCE_77 [J]
Zone,Meter,General:InteriorLights:Electricity:Zone:CONFERENCE_77 [J]
Zone,Meter,Electricity:Zone:BREAK_ROOM_77 [J]
Zone,Meter,InteriorLights:Electricity:Zone:BREAK_ROOM_77 [J]
Zone,Meter,General:InteriorLights:Electricity:Zone:BREAK_ROOM_77 [J]
Zone,Meter,Electricity:Zone:STORAGE_77 [J]
Zone,Meter,InteriorLights:Electricity:Zone:STORAGE_77 [J]
Zone,Meter,General:InteriorLights:Electricity:Zone:STORAGE_77 [J]
Zone,Meter,Electricity:Zone:CONFERENCE_78 [J]
Zone,Meter,InteriorLights:Electricity:Zone:CONFERENCE_78 [J]
Zone,Meter,General:InteriorLights:Electricity:Zone:CONFERENCE_78 [J]
Zone,Meter,Electricity:Zone:CONFERENCE_79 [J]
Zone,Meter,InteriorLights:Electricity:Zone:CONFERENCE_79 [J]
Zone,Meter,General:InteriorLights:Electricity:Zone:CONFERENCE_79 [J]
Zone,Meter,Electricity:Zone:BREAK_ROOM_79 [J]
Zone,Meter,InteriorLights:Electricity:Zone:BREAK_ROOM_79 [J]
Zone,Meter,General:InteriorLights:Electricity:Zone:BREAK_ROOM_79 [J]
Zone,Meter,Electricity:Zone:STORAGE_79 [J]
Zone,Meter,InteriorLights:Electricity:Zone:STORAGE_79 [J]
Zone,Meter,General:InteriorLights:Electricity:Zone:STORAGE_79 [J]
Zone,Meter,Electricity:Zone:CONFERENCE_80 [J]
Zone,Meter,InteriorLights:Electricity:Zone:CONFERENCE_80 [J]
Zone,Meter,General:InteriorLights:Electricity:Zone:CONFERENCE_80 [J]
Zone,Meter,Electricity:Zone:BREAK_ROOM_80 [J]
Zone,Meter,InteriorLights:Electricity:Zone:BREAK_ROOM_80 [J]
Zone,Meter,General:InteriorLights:Electricity:Zone:BREAK_ROOM_80 [J]
Zone,Meter,Electricity:Zone:OFFICE_PRIVATE_80 [J]
Zone,Meter,InteriorLights:Electricity:Zone:OFFICE_PRIVATE_80 [J]
Zone,Meter,General:InteriorLights:Electricity:Zone:OFFICE_PRIVATE_80 [J]
Zone,Meter,Electricity:Zone:LOBBY_81 [J]
Zone,Meter,InteriorLights:Electricity:Zone:LOBBY_81 [J]
Zone,Meter,General:InteriorLights:Electricity:Zone:LOBBY_81 [J]
Zone,Meter,Electricity:Zone:OFFICE_PRIVATE_81 [J]
Zone,Meter,InteriorLights:Electricity:Zone:OFFICE_PRIVATE_81 [J]
Zone,Meter,General:InteriorLights:Electricity:Zone:OFFICE_PRIVATE_81 [J]
Zone,Meter,Electricity:Zone:CONFERENCE_82 [J]
Zone,Meter,InteriorLights:Electricity:Zone:CONFERENCE_82 [J]
Zone,Meter,General:InteriorLights:Electricity:Zone:CONFERENCE_82 [J]
Zone,Meter,Electricity:Zone:OFFICE_PRIVATE_82 [J]
Zone,Meter,InteriorLights:Electricity:Zone:OFFICE_PRIVATE_82 [J]
Zone,Meter,General:InteriorLights:Electricity:Zone:OFFICE_PRIVATE_82 [J]
Zone,Meter,Electricity:Zone:LOBBY_83 [J]
Zone,Meter,InteriorLights:Electricity:Zone:LOBBY_83 [J]
Zone,Meter,General:InteriorLights:Electricity:Zone:LOBBY_83 [J]
Zone,Meter,Electricity:Zone:OFFICE_PRIVATE_83 [J]
Zone,Meter,InteriorLights:Electricity:Zone:OFFICE_PRIVATE_83 [J]
Zone,Meter,General:InteriorLights:Electricity:Zone:OFFICE_PRIVATE_83 [J]
Zone,Meter,Electricity:Zone:STORAGE_83 [J]
Zone,Meter,InteriorLights:Electricity:Zone:STORAGE_83 [J]
Zone,Meter,General:InteriorLights:Electricity:Zone:STORAGE_83 [J]
Zone,Meter,Electricity:Zone:LOBBY_84 [J]
Zone,Meter,InteriorLights:Electricity:Zone:LOBBY_84 [J]
Zone,Meter,General:InteriorLights:Electricity:Zone:LOBBY_84 [J]
Zone,Meter,Electricity:Zone:CONFERENCE_84 [J]
Zone,Meter,InteriorLights:Electricity:Zone:CONFERENCE_84 [J]
Zone,Meter,General:InteriorLights:Electricity:Zone:CONFERENCE_84 [J]
Zone,Meter,Electricity:Zone:OFFICE_PRIVATE_84 [J]
Zone,Meter,InteriorLights:Electricity:Zone:OFFICE_PRIVATE_84 [J]
Zone,Meter,General:InteriorLights:Electricity:Zone:OFFICE_PRIVATE_84 [J]
Zone,Meter,Electricity:Zone:CONFERENCE_85 [J]
Zone,Meter,InteriorLights:Electricity:Zone:CONFERENCE_85 [J]
Zone,Meter,General:InteriorLights:Electricity:Zone:CONFERENCE_85 [J]
Zone,Meter,Electricity:Zone:MECHANICAL_85 [J]
Zone,Meter,InteriorLights:Electricity:Zone:MECHANICAL_85 [J]
Zone,Meter,General:InteriorLights:Electricity:Zone:MECHANICAL_85 [J]
Zone,Meter,Electricity:Zone:OFFICE_PRIVATE_85 [J]
Zone,Meter,InteriorLights:Electricity:Zone:OFFICE_PRIVATE_85 [J]
Zone,Meter,General:InteriorLights:Electricity:Zone:OFFICE_PRIVATE_85 [J]
Zone,Meter,Electricity:Zone:CONFERENCE_86 [J]
Zone,Meter,InteriorLights:Electricity:Zone:CONFERENCE_86 [J]
Zone,Meter,General:InteriorLights:Electricity:Zone:CONFERENCE_86 [J]
Zone,Meter,Electricity:Zone:BREAK_ROOM_86 [J]
Zone,Meter,InteriorLights:Electricity:Zone:BREAK_ROOM_86 [J]
Zone,Meter,General:InteriorLights:Electricity:Zone:BREAK_ROOM_86 [J]
Zone,Meter,Electricity:Zone:OFFICE_PRIVATE_86 [J]
Zone,Meter,InteriorLights:Electricity:Zone:OFFICE_PRIVATE_86 [J]
Zone,Meter,General:InteriorLights:Electricity:Zone:OFFICE_PRIVATE_86 [J]
Zone,Meter,Electricity:Zone:STORAGE_86 [J]
Zone,Meter,InteriorLights:Electricity:Zone:STORAGE_86 [J]
Zone,Meter,General:InteriorLights:Electricity:Zone:STORAGE_86 [J]
Zone,Meter,Electricity:Zone:CONFERENCE_87 [J]
Zone,Meter,InteriorLights:Electricity:Zone:CONFERENCE_87 [J]
Zone,Meter,General:InteriorLights:Electricity:Zone:CONFERENCE_87 [J]
Zone,Meter,Electricity:Zone:BREAK_ROOM_87 [J]
Zone,Meter,InteriorLights:Electricity:Zone:BREAK_ROOM_87 [J]
Zone,Meter,General:InteriorLights:Electricity:Zone:BREAK_ROOM_87 [J]
Zone,Meter,Electricity:Zone:MECHANICAL_87 [J]
Zone,Meter,InteriorLights:Electricity:Zone:MECHANICAL_87 [J]
Zone,Meter,General:InteriorLights:Electricity:Zone:MECHANICAL_87 [J]
Zone,Meter,Electricity:Zone:OFFICE_PRIVATE_87 [J]
Zone,Meter,InteriorLights:Electricity:Zone:OFFICE_PRIVATE_87 [J]
Zone,Meter,General:InteriorLights:Electricity:Zone:OFFICE_PRIVATE_87 [J]
Zone,Meter,Electricity:Zone:STORAGE_87 [J]
Zone,Meter,InteriorLights:Electricity:Zone:STORAGE_87 [J]
Zone,Meter,General:InteriorLights:Electricity:Zone:STORAGE_87 [J]
Zone,Meter,Electricity:Zone:BREAK_ROOM_88 [J]
Zone,Meter,InteriorLights:Electricity:Zone:BREAK_ROOM_88 [J]
Zone,Meter,General:InteriorLights:Electricity:Zone:BREAK_ROOM_88 [J]
Zone,Meter,Electricity:Zone:OFFICE_PRIVATE_88 [J]
Zone,Meter,InteriorLights:Electricity:Zone:OFFICE_PRIVATE_88 [J]
Zone,Meter,General:InteriorLights:Electricity:Zone:OFFICE_PRIVATE_88 [J]
Zone,Meter,Electricity:Zone:MECHANICAL_89 [J]
Zone,Meter,InteriorLights:Electricity:Zone:MECHANICAL_89 [J]
Zone,Meter,General:InteriorLights:Electricity:Zone:MECHANICAL_89 [J]
Zone,Meter,Electricity:Zone:OFFICE_PRIVATE_89 [J]
Zone,Meter,InteriorLights:Electricity:Zone:OFFICE_PRIVATE_89 [J]
Zone,Meter,General:InteriorLights:Electricity:Zone:OFFICE_PRIVATE_89 [J]
Zone,Meter,Electricity:Zone:CONFERENCE_90 [J]
Zone,Meter,InteriorLights:Electricity:Zone:CONFERENCE_90 [J]
Zone,Meter,General:InteriorLights:Electricity:Zone:CONFERENCE_90 [J]
Zone,Meter,Electricity:Zone:BREAK_ROOM_90 [J]
Zone,Meter,InteriorLights:Electricity:Zone:BREAK_ROOM_90 [J]
Zone,Meter,General:InteriorLights:Electricity:Zone:BREAK_ROOM_90 [J]
Zone,Meter,Electricity:Zone:OFFICE_OPEN_91 [J]
Zone,Meter,InteriorLights:Electricity:Zone:OFFICE_OPEN_91 [J]
Zone,Meter,General:InteriorLights:Electricity:Zone:OFFICE_OPEN_91 [J]
Zone,Meter,Electricity:Zone:OFFICE_PRIVATE_91 [J]
Zone,Meter,InteriorLights:Electricity:Zone:OFFICE_PRIVATE_91 [J]
Zone,Meter,General:InteriorLights:Electricity:Zone:OFFICE_PRIVATE_91 [J]
Zone,Meter,Electricity:Zone:CONFERENCE_92 [J]
Zone,Meter,InteriorLights:Electricity:Zone:CONFERENCE_92 [J]
Zone,Meter,General:InteriorLights:Electricity:Zone:CONFERENCE_92 [J]
Zone,Meter,Electricity:Zone:BREAK_ROOM_92 [J]
Zone,Meter,InteriorLights:Electricity:Zone:BREAK_ROOM_92 [J]
Zone,Meter,General:InteriorLights:Electricity:Zone:BREAK_ROOM_92 [J]
Zone,Meter,Electricity:Zone:MECHANICAL_92 [J]
Zone,Meter,InteriorLights:Electricity:Zone:MECHANICAL_92 [J]
Zone,Meter,General:InteriorLights:Electricity:Zone:MECHANICAL_92 [J]
Zone,Meter,Electricity:Zone:OFFICE_PRIVATE_92 [J]
Zone,Meter,InteriorLights:Electricity:Zone:OFFICE_PRIVATE_92 [J]
Zone,Meter,General:InteriorLights:Electricity:Zone:OFFICE_PRIVATE_92 [J]
Zone,Meter,Electricity:Zone:OFFICE_PRIVATE_93 [J]
Zone,Meter,InteriorLights:Electricity:Zone:OFFICE_PRIVATE_93 [J]
Zone,Meter,General:InteriorLights:Electricity:Zone:OFFICE_PRIVATE_93 [J]
Zone,Meter,Electricity:Zone:STORAGE_93 [J]
Zone,Meter,InteriorLights:Electricity:Zone:STORAGE_93 [J]
Zone,Meter,General:InteriorLights:Electricity:Zone:STORAGE_93 [J]
Zone,Meter,Electricity:Zone:CONFERENCE_94 [J]
Zone,Meter,InteriorLights:Electricity:Zone:CONFERENCE_94 [J]
Zone,Meter,General:InteriorLights:Electricity:Zone:CONFERENCE_94 [J]
Zone,Meter,Electricity:Zone:BREAK_ROOM_94 [J]
Zone,Meter,InteriorLights:Electricity:Zone:BREAK_ROOM_94 [J]
Zone,Meter,General:InteriorLights:Electricity:Zone:BREAK_ROOM_94 [J]
Zone,Meter,Electricity:Zone:MECHANICAL_94 [J]
Zone,Meter,InteriorLights:Electricity:Zone:MECHANICAL_94 [J]
Zone,Meter,General:InteriorLights:Electricity:Zone:MECHANICAL_94 [J]
Zone,Meter,Electricity:Zone:OFFICE_PRIVATE_94 [J]
Zone,Meter,InteriorLights:Electricity:Zone:OFFICE_PRIVATE_94 [J]
Zone,Meter,General:InteriorLights:Electricity:Zone:OFFICE_PRIVATE_94 [J]
Zone,Meter,Electricity:Zone:STORAGE_94 [J]
Zone,Meter,InteriorLights:Electricity:Zone:STORAGE_94 [J]
Zone,Meter,General:InteriorLights:Electricity:Zone:STORAGE_94 [J]
Zone,Meter,Electricity:Zone:MECHANICAL_95 [J]
Zone,Meter,InteriorLights:Electricity:Zone:MECHANICAL_95 [J]
Zone,Meter,General:InteriorLights:Electricity:Zone:MECHANICAL_95 [J]
Zone,Meter,Electricity:Zone:OFFICE_PRIVATE_95 [J]
Zone,Meter,InteriorLights:Electricity:Zone:OFFICE_PRIVATE_95 [J]
Zone,Meter,General:InteriorLights:Electricity:Zone:OFFICE_PRIVATE_95 [J]
Zone,Meter,Electricity:Zone:OFFICE_PRIVATE_96 [J]
Zone,Meter,InteriorLights:Electricity:Zone:OFFICE_PRIVATE_96 [J]
Zone,Meter,General:InteriorLights:Electricity:Zone:OFFICE_PRIVATE_96 [J]
Zone,Meter,Electricity:Zone:STORAGE_96 [J]
Zone,Meter,InteriorLights:Electricity:Zone:STORAGE_96 [J]
Zone,Meter,General:InteriorLights:Electricity:Zone:STORAGE_96 [J]
Zone,Meter,Electricity:Zone:CONFERENCE_97 [J]
Zone,Meter,InteriorLights:Electricity:Zone:CONFERENCE_97 [J]
Zone,Meter,General:InteriorLights:Electricity:Zone:CONFERENCE_97 [J]
Zone,Meter,Electricity:Zone:BREAK_ROOM_97 [J]
Zone,Meter,InteriorLights:Electricity:Zone:BREAK_ROOM_97 [J]
Zone,Meter,General:InteriorLights:Electricity:Zone:BREAK_ROOM_97 [J]
Zone,Meter,Electricity:Zone:MECHANICAL_97 [J]
Zone,Meter,InteriorLights:Electricity:Zone:MECHANICAL_97 [J]
Zone,Meter,General:InteriorLights:Electricity:Zone:MECHANICAL_97 [J]
Zone,Meter,Electricity:Zone:STORAGE_97 [J]
Zone,Meter,InteriorLights:Electricity:Zone:STORAGE_97 [J]
Zone,Meter,General:InteriorLights:Electricity:Zone:STORAGE_97 [J]
Zone,Meter,Electricity:Zone:BREAK_ROOM_98 [J]
Zone,Meter,InteriorLights:Electricity:Zone:BREAK_ROOM_98 [J]
Zone,Meter,General:InteriorLights:Electricity:Zone:BREAK_ROOM_98 [J]
Zone,Meter,Electricity:Zone:STORAGE_98 [J]
Zone,Meter,InteriorLights:Electricity:Zone:STORAGE_98 [J]
Zone,Meter,General:InteriorLights:Electricity:Zone:STORAGE_98 [J]
Zone,Meter,Electricity:Zone:BREAK_ROOM_99 [J]
Zone,Meter,InteriorLights:Electricity:Zone:BREAK_ROOM_99 [J]
Zone,Meter,General:InteriorLights:Electricity:Zone:BREAK_ROOM_99 [J]
Zone,Meter,Electricity:Zone:OFFICE_PRIVATE_99 [J]
Zone,Meter,InteriorLights:Electricity:Zone:OFFICE_PRIVATE_99 [J]
Zone,Meter,General:InteriorLights:Electricity:Zone:OFFICE_PRIVATE_99 [J]
Zone,Meter,Electricity:Zone:STORAGE_99 [J]
Zone,Meter,InteriorLights:Electricity:Zone:STORAGE_99 [J]
Zone,Meter,General:InteriorLights:Electricity:Zone:STORAGE_99 [J]
Zone,Meter,InteriorEquipment:Electricity [J]
Zone,Meter,InteriorEquipment:Electricity:Zone:LOBBY_0 [J]
Zone,Meter,InteriorEquipment:Electricity:SpaceType:GENERAL [J]
Zone,Meter,General:InteriorEquipment:Electricity [J]
Zone,Meter,General:InteriorEquipment:Electricity:Zone:LOBBY_0 [J]
Zone,Meter,General:InteriorEquipment:Electricity:SpaceType:GENERAL [J]
Zone,Meter,InteriorEquipment:Electricity:Zone:OFFICE_PRIVATE_0 [J]
Zone,Meter,General:InteriorEquipment:Electricity:Zone:OFFICE_PRIVATE_0 [J]
Zone,Meter,InteriorEquipment:Electricity:Zone:STORAGE_0 [J]
Zone,Meter,General:InteriorEquipment:Electricity:Zone:STORAGE_0 [J]
Zone,Meter,InteriorEquipment:Electricity:Zone:BREAK_ROOM_1 [J]
Zone,Meter,General:InteriorEquipment:Electricity:Zone:BREAK_ROOM_1 [J]
Zone,Meter,InteriorEquipment:Electricity:Zone:MECHANICAL_1 [J]
Zone,Meter,General:InteriorEquipment:Electricity:Zone:MECHANICAL_1 [J]
Zone,Meter,InteriorEquipment:Electricity:Zone:OFFICE_PRIVATE_2 [J]
Zone,Meter,General:InteriorEquipment:Electricity:Zone:OFFICE_PRIVATE_2 [J]
Zone,Meter,InteriorEquipment:Electricity:Zone:MECHANICAL_3 [J]
Zone,Meter,General:InteriorEquipment:Electricity:Zone:MECHANICAL_3 [J]
Zone,Meter,InteriorEquipment:Electricity:Zone:STORAGE_3 [J]
Zone,Meter,General:InteriorEquipment:Electricity:Zone:STORAGE_3 [J]
Zone,Meter,InteriorEquipment:Electricity:Zone:OFFICE_PRIVATE_4 [J]
Zone,Meter,General:InteriorEquipment:Electricity:Zone:OFFICE_PRIVATE_4 [J]
Zone,Meter,InteriorEquipment:Electricity:Zone:LOBBY_5 [J]
Zone,Meter,General:InteriorEquipment:Electricity:Zone:LOBBY_5 [J]
Zone,Meter,InteriorEquipment:Electricity:Zone:CONFERENCE_5 [J]
Zone,Meter,General:InteriorEquipment:Electricity:Zone:CONFERENCE_5 [J]
Zone,Meter,InteriorEquipment:Electricity:Zone:OFFICE_PRIVATE_5 [J]
Zone,Meter,General:InteriorEquipment:Electricity:Zone:OFFICE_PRIVATE_5 [J]
Zone,Meter,InteriorEquipment:Electricity:Zone:LOBBY_6 [J]
Zone,Meter,General:InteriorEquipment:Electricity:Zone:LOBBY_6 [J]
Zone,Meter,InteriorEquipment:Electricity:Zone:MECHANICAL_6 [J]
Zone,Meter,General:InteriorEquipment:Electricity:Zone:MECHANICAL_6 [J]
Zone,Meter,InteriorEquipment:Electricity:Zone:STORAGE_6 [J]
Zone,Meter,General:InteriorEquipment:Electricity:Zone:STORAGE_6 [J]
Zone,Meter,InteriorEquipment:Electricity:Zone:OFFICE_OPEN_7 [J]
Zone,Meter,General:InteriorEquipment:Electricity:Zone:OFFICE_OPEN_7 [J]
Zone,Meter,InteriorEquipment:Electricity:Zone:OFFICE_PRIVATE_7 [J]
Zone,Meter,General:InteriorEquipment:Electricity:Zone:OFFICE_PRIVATE_7 [J]
Zone,Meter,InteriorEquipment:Electricity:Zone:LOBBY_8 [J]
Zone,Meter,General:InteriorEquipment:Electricity:Zone:LOBBY_8 [J]
Zone,Meter,InteriorEquipment:Electricity:Zone:CONFERENCE_8 [J]
Zone,Meter,General:InteriorEquipment:Electricity:Zone:CONFERENCE_8 [J]
Zone,Meter,InteriorEquipment:Electricity:Zone:BREAK_ROOM_8 [J]
Zone,Meter,General:InteriorEquipment:Electricity:Zone:BREAK_ROOM_8 [J]
Zone,Meter,InteriorEquipment:Electricity:Zone:STORAGE_8 [J]
Zone,Meter,General:InteriorEquipment:Electricity:Zone:STORAGE_8 [J]
Zone,Meter,InteriorEquipment:Electricity:Zone:MECHANICAL_9 [J]
Zone,Meter,General:InteriorEquipment:Electricity:Zone:MECHANICAL_9 [J]
Zone,Meter,InteriorEquipment:Electricity:Zone:STORAGE_9 [J]
Zone,Meter,General:InteriorEquipment:Electricity:Zone:STORAGE_9 [J]
Zone,Meter,InteriorEquipment:Electricity:Zone:LOBBY_10 [J]
Zone,Meter,General:InteriorEquipment:Electricity:Zone:LOBBY_10 [J]
Zone,Meter,InteriorEquipment:Electricity:Zone:CONFERENCE_10 [J]
Zone,Meter,General:InteriorEquipment:Electricity:Zone:CONFERENCE_10 [J]
Zone,Meter,InteriorEquipment:Electricity:Zone:LOBBY_11 [J]
Zone,Meter,General:InteriorEquipment:Electricity:Zone:LOBBY_11 [J]
Zone,Meter,InteriorEquipment:Electricity:Zone:BREAK_ROOM_11 [J]
Zone,Meter,General:InteriorEquipment:Electricity:Zone:BREAK_ROOM_11 [J]
Zone,Meter,InteriorEquipment:Electricity:Zone:MECHANICAL_11 [J]
Zone,Meter,General:InteriorEquipment:Electricity:Zone:MECHANICAL_11 [J]
Zone,Meter,InteriorEquipment:Electricity:Zone:OFFICE_PRIVATE_11 [J]
Zone,Meter,General:InteriorEquipment:Electricity:Zone:OFFICE_PRIVATE_11 [J]
Zone,Meter,InteriorEquipment:Electricity:Zone:BREAK_ROOM_12 [J]
Zone,Meter,General:InteriorEquipment:Electricity:Zone:BREAK_ROOM_12 [J]
Zone,Meter,InteriorEquipment:Electricity:Zone:MECHANICAL_12 [J]
Zone,Meter,General:InteriorEquipment:Electricity:Zone:MECHANICAL_12 [J]
Zone,Meter,InteriorEquipment:Electricity:Zone:OFFICE_PRIVATE_12 [J]
Zone,Meter,General:InteriorEquipment:Electricity:Zone:OFFICE_PRIVATE_12 [J]
Zone,Meter,InteriorEquipment:Electricity:Zone:MECHANICAL_13 [J]
Zone,Meter,General:InteriorEquipment:Electricity:Zone:MECHANICAL_13 [J]
Zone,Meter,InteriorEquipment:Electricity:Zone:OFFICE_PRIVATE_13 [J]
Zone,Meter,General:InteriorEquipment:Electricity:Zone:OFFICE_PRIVATE_13 [J]
Zone,Meter,InteriorEquipment:Electricity:Zone:STORAGE_13 [J]
Zone,Meter,General:InteriorEquipment:Electricity:Zone:STORAGE_13 [J]
Zone,Meter,InteriorEquipment:Electricity:Zone:BREAK_ROOM_14 [J]
Zone,Meter,General:InteriorEquipment:Electricity:Zone:BREAK_ROOM_14 [J]
Zone,Meter,InteriorEquipment:Electricity:Zone:STORAGE_14 [J]
Zone,Meter,General:InteriorEquipment:Electricity:Zone:STORAGE_14 [J]
Zone,Meter,InteriorEquipment:Electricity:Zone:MECHANICAL_15 [J]
Zone,Meter,General:InteriorEquipment:Electricity:Zone:MECHANICAL_15 [J]
Zone,Meter,InteriorEquipment:Electricity:Zone:OFFICE_PRIVATE_15 [J]
Zone,Meter,General:InteriorEquipment:Electricity:Zone:OFFICE_PRIVATE_15 [J]
Zone,Meter,InteriorEquipment:Electricity:Zone:STORAGE_15 [J]
Zone,Meter,General:InteriorEquipment:Electricity:Zone:STORAGE_15 [J]
Zone,Meter,InteriorEquipment:Electricity:Zone:OFFICE_PRIVATE_16 [J]
Zone,Meter,General:InteriorEquipment:Electricity:Zone:OFFICE_PRIVATE_16 [J]
Zone,Meter,InteriorEquipment:Electricity:Zone:CONFERENCE_17 [J]
Zone,Meter,General:InteriorEquipment:Electricity:Zone:CONFERENCE_17 [J]
Zone,Meter,InteriorEquipment:Electricity:Zone:MECHANICAL_17 [J]
Zone,Meter,General:InteriorEquipment:Electricity:Zone:MECHANICAL_17 [J]
Zone,Meter,InteriorEquipment:Electricity:Zone:OFFICE_PRIVATE_17 [J]
Zone,Meter,General:InteriorEquipment:Electricity:Zone:OFFICE_PRIVATE_17 [J]
Zone,Meter,InteriorEquipment:Electricity:Zone:STORAGE_17 [J]
Zone,Meter,General:InteriorEquipment:Electricity:Zone:STORAGE_17 [J]
Zone,Meter,InteriorEquipment:Electricity:Zone:LOBBY_18 [J]
Zone,Meter,General:InteriorEquipment:Electricity:Zone:LOBBY_18 [J]
Zone,Meter,InteriorEquipment:Electricity:Zone:MECHANICAL_18 [J]
Zone,Meter,General:InteriorEquipment:Electricity:Zone:MECHANICAL_18 [J]
Zone,Meter,InteriorEquipment:Electricity:Zone:OFFICE_PRIVATE_18 [J]
Zone,Meter,General:InteriorEquipment:Electricity:Zone:OFFICE_PRIVATE_18 [J]
Zone,Meter,InteriorEquipment:Electricity:Zone:STORAGE_18 [J]
Zone,Meter,General:InteriorEquipment:Electricity:Zone:STORAGE_18 [J]
Zone,Meter,InteriorEquipment:Electricity:Zone:MECHANICAL_19 [J]
Zone,Meter,General:InteriorEquipment:Electricity:Zone:MECHANICAL_19 [J]
Zone,Meter,InteriorEquipment:Electricity:Zone:OFFICE_PRIVATE_19 [J]
Zone,Meter,General:InteriorEquipment:Electricity:Zone:OFFICE_PRIVATE_19 [J]
Zone,Meter,InteriorEquipment:Electricity:Zone:STORAGE_19 [J]
Zone,Meter,General:InteriorEquipment:Electricity:Zone:STORAGE_19 [J]
Zone,Meter,InteriorEquipment:Electricity:Zone:CONFERENCE_20 [J]
Zone,Meter,General:InteriorEquipment:Electricity:Zone:CONFERENCE_20 [J]
Zone,Meter,InteriorEquipment:Electricity:Zone:BREAK_ROOM_21 [J]
Zone,Meter,General:InteriorEquipment:Electricity:Zone:BREAK_ROOM_21 [J]
Zone,Meter,InteriorEquipment:Electricity:Zone:MECHANICAL_21 [J]
Zone,Meter,General:InteriorEquipment:Electricity:Zone:MECHANICAL_21 [J]
Zone,Meter,InteriorEquipment:Electricity:Zone:LOBBY_22 [J]
Zone,Meter,General:InteriorEquipment:Electricity:Zone:LOBBY_22 [J]
Zone,Meter,InteriorEquipment:Electricity:Zone:BREAK_ROOM_22 [J]
Zone,Meter,General:InteriorEquipment:Electricity:Zone:BREAK_ROOM_22 [J]
Zone,Meter,InteriorEquipment:Electricity:Zone:OFFICE_PRIVATE_22 [J]
Zone,Meter,General:InteriorEquipment:Electricity:Zone:OFFICE_PRIVATE_22 [J]
Zone,Meter,InteriorEquipment:Electricity:Zone:STORAGE_22 [J]
Zone,Meter,General:InteriorEquipment:Electricity:Zone:STORAGE_22 [J]
Zone,Meter,InteriorEquipment:Electricity:Zone:LOBBY_23 [J]
Zone,Meter,General:InteriorEquipment:Electricity:Zone:LOBBY_23 [J]
Zone,Meter,InteriorEquipment:Electricity:Zone:BREAK_ROOM_23 [J]
Zone,Meter,General:InteriorEquipment:Electricity:Zone:BREAK_ROOM_23 [J]
Zone,Meter,InteriorEquipment:Electricity:Zone:OFFICE_PRIVATE_23 [J]
Zone,Meter,General:InteriorEquipment:Electricity:Zone:OFFICE_PRIVATE_23 [J]
Zone,Meter,InteriorEquipment:Electricity:Zone:STORAGE_23 [J]
Zone,Meter,General:InteriorEquipment:Electricity:Zone:STORAGE_23 [J]
Zone,Meter,InteriorEquipment:Electricity:Zone:MECHANICAL_24 [J]
Zone,Meter,General:InteriorEquipment:Electricity:Zone:MECHANICAL_24 [J]
Zone,Meter,InteriorEquipment:Electricity:Zone:OFFICE_PRIVATE_24 [J]
Zone,Meter,General:InteriorEquipment:Electricity:Zone:OFFICE_PRIVATE_24 [J]
Zone,Meter,InteriorEquipment:Electricity:Zone:STORAGE_24 [J]
Zone,Meter,General:InteriorEquipment:Electricity:Zone:STORAGE_24 [J]
Zone,Meter,InteriorEquipment:Electricity:Zone:CONFERENCE_25 [J]
Zone,Meter,General:InteriorEquipment:Electricity:Zone:CONFERENCE_25 [J]
Zone,Meter,InteriorEquipment:Electricity:Zone:OFFICE_PRIVATE_25 [J]
Zone,Meter,General:InteriorEquipment:Electricity:Zone:OFFICE_PRIVATE_25 [J]
Zone,Meter,InteriorEquipment:Electricity:Zone:CONFERENCE_26 [J]
Zone,Meter,General:InteriorEquipment:Electricity:Zone:CONFERENCE_26 [J]
Zone,Meter,InteriorEquipment:Electricity:Zone:MECHANICAL_26 [J]
Zone,Meter,General:InteriorEquipment:Electricity:Zone:MECHANICAL_26 [J]
Zone,Meter,InteriorEquipment:Electricity:Zone:STORAGE_26 [J]
Zone,Meter,General:InteriorEquipment:Electricity:Zone:STORAGE_26 [J]
Zone,Meter,InteriorEquipment:Electricity:Zone:MECHANICAL_27 [J]
Zone,Meter,General:InteriorEquipment:Electricity:Zone:MECHANICAL_27 [J]
Zone,Meter,InteriorEquipment:Electricity:Zone:OFFICE_PRIVATE_27 [J]
Zone,Meter,General:InteriorEquipment:Electricity:Zone:OFFICE_PRIVATE_27 [J]
Zone,Meter,InteriorEquipment:Electricity:Zone:CONFERENCE_28 [J]
Zone,Meter,General:InteriorEquipment:Electricity:Zone:CONFERENCE_28 [J]
Zone,Meter,InteriorEquipment:Electricity:Zone:BREAK_ROOM_28 [J]
Zone,Meter,General:InteriorEquipment:Electricity:Zone:BREAK_ROOM_28 [J]
Zone,Meter,InteriorEquipment:Electricity:Zone:STORAGE_28 [J]
Zone,Meter,General:InteriorEquipment:Electricity:Zone:STORAGE_28 [J]
Zone,Meter,InteriorEquipment:Electricity:Zone:BREAK_ROOM_30 [J]
Zone,Meter,General:InteriorEquipment:Electricity:Zone:BREAK_ROOM_30 [J]
Zone,Meter,InteriorEquipment:Electricity:Zone:MECHANICAL_30 [J]
Zone,Meter,General:InteriorEquipment:Electricity:Zone:MECHANICAL_30 [J]
Zone,Meter,InteriorEquipment:Electricity:Zone:OFFICE_PRIVATE_30 [J]
Zone,Meter,General:InteriorEquipment:Electricity:Zone:OFFICE_PRIVATE_30 [J]
Zone,Meter,InteriorEquipment:Electricity:Zone:CONFERENCE_31 [J]
Zone,Meter,General:InteriorEquipment:Electricity:Zone:CONFERENCE_31 [J]
Zone,Meter,InteriorEquipment:Electricity:Zone:OFFICE_PRIVATE_31 [J]
Zone,Meter,General:InteriorEquipment:Electricity:Zone:OFFICE_PRIVATE_31 [J]
Zone,Meter,InteriorEquipment:Electricity:Zone:MECHANICAL_32 [J]
Zone,Meter,General:InteriorEquipment:Electricity:Zone:MECHANICAL_32 [J]
Zone,Meter,InteriorEquipment:Electricity:Zone:OFFICE_PRIVATE_33 [J]
Zone,Meter,General:InteriorEquipment:Electricity:Zone:OFFICE_PRIVATE_33 [J]
Zone,Meter,InteriorEquipment:Electricity:Zone:STORAGE_33 [J]
Zone,Meter,General:InteriorEquipment:Electricity:Zone:STORAGE_33 [J]
Zone,Meter,InteriorEquipment:Electricity:Zone:BREAK_ROOM_34 [J]
Zone,Meter,General:InteriorEquipment:Electricity:Zone:BREAK_ROOM_34 [J]
Zone,Meter,InteriorEquipment:Electricity:Zone:OFFICE_PRIVATE_34 [J]
Zone,Meter,General:InteriorEquipment:Electricity:Zone:OFFICE_PRIVATE_34 [J]
Zone,Meter,InteriorEquipment:Electricity:Zone:LOBBY_35 [J]
Zone,Meter,General:InteriorEquipment:Electricity:Zone:LOBBY_35 [J]
Zone,Meter,InteriorEquipment:Electricity:Zone:BREAK_ROOM_35 [J]
Zone,Meter,General:InteriorEquipment:Electricity:Zone:BREAK_ROOM_35 [J]
Zone,Meter,InteriorEquipment:Electricity:Zone:MECHANICAL_35 [J]
Zone,Meter,General:InteriorEquipment:Electricity:Zone:MECHANICAL_35 [J]
Zone,Meter,InteriorEquipment:Electricity:Zone:CONFERENCE_36 [J]
Zone,Meter,General:InteriorEquipment:Electricity:Zone:CONFERENCE_36 [J]
Zone,Meter,InteriorEquipment:Electricity:Zone:BREAK_ROOM_36 [J]
Zone,Meter,General:InteriorEquipment:Electricity:Zone:BREAK_ROOM_36 [J]
Zone,Meter,InteriorEquipment:Electricity:Zone:OFFICE_PRIVATE_36 [J]
Zone,Meter,General:InteriorEquipment:Electricity:Zone:OFFICE_PRIVATE_36 [J]
Zone,Meter,InteriorEquipment:Electricity:Zone:STORAGE_36 [J]
Zone,Meter,General:InteriorEquipment:Electricity:Zone:STORAGE_36 [J]
Zone,Meter,InteriorEquipment:Electricity:Zone:CONFERENCE_37 [J]
Zone,Meter,General:InteriorEquipment:Electricity:Zone:CONFERENCE_37 [J]
Zone,Meter,InteriorEquipment:Electricity:Zone:BREAK_ROOM_37 [J]
Zone,Meter,General:InteriorEquipment:Electricity:Zone:BREAK_ROOM_37 [J]
Zone,Meter,InteriorEquipment:Electricity:Zone:LOBBY_38 [J]
Zone,Meter,General:InteriorEquipment:Electricity:Zone:LOBBY_38 [J]
Zone,Meter,InteriorEquipment:Electricity:Zone:MECHANICAL_38 [J]
Zone,Meter,General:InteriorEquipment:Electricity:Zone:MECHANICAL_38 [J]
Zone,Meter,InteriorEquipment:Electricity:Zone:OFFICE_PRIVATE_38 [J]
Zone,Meter,General:InteriorEquipment:Electricity:Zone:OFFICE_PRIVATE_38 [J]
Zone,Meter,InteriorEquipment:Electricity:Zone:STORAGE_38 [J]
Zone,Meter,General:InteriorEquipment:Electricity:Zone:STORAGE_38 [J]
Zone,Meter,InteriorEquipment:Electricity:Zone:CONFERENCE_39 [J]
Zone,Meter,General:InteriorEquipment:Electricity:Zone:CONFERENCE_39 [J]
Zone,Meter,InteriorEquipment:Electricity:Zone:BREAK_ROOM_39 [J]
Zone,Meter,General:InteriorEquipment:Electricity:Zone:BREAK_ROOM_39 [J]
Zone,Meter,InteriorEquipment:Electricity:Zone:STORAGE_39 [J]
Zone,Meter,General:InteriorEquipment:Electricity:Zone:STORAGE_39 [J]
Zone,Meter,InteriorEquipment:Electricity:Zone:BREAK_ROOM_40 [J]
Zone,Meter,General:InteriorEquipment:Electricity:Zone:BREAK_ROOM_40 [J]
Zone,Meter,InteriorEquipment:Electricity:Zone:OFFICE_PRIVATE_40 [J]
Zone,Meter,General:InteriorEquipment:Electricity:Zone:OFFICE_PRIVATE_40 [J]
Zone,Meter,InteriorEquipment:Electricity:Zone:STORAGE_40 [J]
Zone,Meter,General:InteriorEquipment:Electricity:Zone:STORAGE_40 [J]
Zone,Meter,InteriorEquipment:Electricity:Zone:LOBBY_41 [J]
Zone,Meter,General:InteriorEquipment:Electricity:Zone:LOBBY_41 [J]
Zone,Meter,InteriorEquipment:Electricity:Zone:BREAK_ROOM_41 [J]
Zone,Meter,General:InteriorEquipment:Electricity:Zone:BREAK_ROOM_41 [J]
Zone,Meter,InteriorEquipment:Electricity:Zone:STORAGE_41 [J]
Zone,Meter,General:InteriorEquipment:Electricity:Zone:STORAGE_41 [J]
Zone,Meter,InteriorEquipment:Electricity:Zone:LOBBY_42 [J]
Zone,Meter,General:InteriorEquipment:Electricity:Zone:LOBBY_42 [J]
Zone,Meter,InteriorEquipment:Electricity:Zone:MECHANICAL_42 [J]
Zone,Meter,General:InteriorEquipment:Electricity:Zone:MECHANICAL_42 [J]
Zone,Meter,InteriorEquipment:Electricity:Zone:OFFICE_PRIVATE_42 [J]
Zone,Meter,General:InteriorEquipment:Electricity:Zone:OFFICE_PRIVATE_42 [J]
Zone,Meter,InteriorEquipment:Electricity:Zone:LOBBY_43 [J]
Zone,Meter,General:InteriorEquipment:Electricity:Zone:LOBBY_43 [J]
Zone,Meter,InteriorEquipment:Electricity:Zone:MECHANICAL_43 [J]
Zone,Meter,General:InteriorEquipment:Electricity:Zone:MECHANICAL_43 [J]
Zone,Meter,InteriorEquipment:Electricity:Zone:OFFICE_PRIVATE_43 [J]
Zone,Meter,General:InteriorEquipment:Electricity:Zone:OFFICE_PRIVATE_43 [J]
Zone,Meter,InteriorEquipment:Electricity:Zone:BREAK_ROOM_44 [J]
Zone,Meter,General:InteriorEquipment:Electricity:Zone:BREAK_ROOM_44 [J]
Zone,Meter,InteriorEquipment:Electricity:Zone:OFFICE_PRIVATE_44 [J]
Zone,Meter,General:InteriorEquipment:Electricity:Zone:OFFICE_PRIVATE_44 [J]
Zone,Meter,InteriorEquipment:Electricity:Zone:STORAGE_44 [J]
Zone,Meter,General:InteriorEquipment:Electricity:Zone:STORAGE_44 [J]
Zone,Meter,InteriorEquipment:Electricity:Zone:CONFERENCE_45 [J]
Zone,Meter,General:InteriorEquipment:Electricity:Zone:CONFERENCE_45 [J]
Zone,Meter,InteriorEquipment:Electricity:Zone:MECHANICAL_45 [J]
Zone,Meter,General:InteriorEquipment:Electricity:Zone:MECHANICAL_45 [J]
Zone,Meter,InteriorEquipment:Electricity:Zone:OFFICE_PRIVATE_45 [J]
Zone,Meter,General:InteriorEquipment:Electricity:Zone:OFFICE_PRIVATE_45 [J]
Zone,Meter,InteriorEquipment:Electricity:Zone:LOBBY_46 [J]
Zone,Meter,General:InteriorEquipment:Electricity:Zone:LOBBY_46 [J]
Zone,Meter,InteriorEquipment:Electricity:Zone:CONFERENCE_46 [J]
Zone,Meter,General:InteriorEquipment:Electricity:Zone:CONFERENCE_46 [J]
Zone,Meter,InteriorEquipment:Electricity:Zone:OFFICE_PRIVATE_46 [J]
Zone,Meter,General:InteriorEquipment:Electricity:Zone:OFFICE_PRIVATE_46 [J]
Zone,Meter,InteriorEquipment:Electricity:Zone:STORAGE_47 [J]
Zone,Meter,General:InteriorEquipment:Electricity:Zone:STORAGE_47 [J]
Zone,Meter,InteriorEquipment:Electricity:Zone:LOBBY_48 [J]
Zone,Meter,General:InteriorEquipment:Electricity:Zone:LOBBY_48 [J]
Zone,Meter,InteriorEquipment:Electricity:Zone:CONFERENCE_48 [J]
Zone,Meter,General:InteriorEquipment:Electricity:Zone:CONFERENCE_48 [J]
Zone,Meter,InteriorEquipment:Electricity:Zone:OFFICE_PRIVATE_48 [J]
Zone,Meter,General:InteriorEquipment:Electricity:Zone:OFFICE_PRIVATE_48 [J]
Zone,Meter,InteriorEquipment:Electricity:Zone:BREAK_ROOM_49 [J]
Zone,Meter,General:InteriorEquipment:Electricity:Zone:BREAK_ROOM_49 [J]
Zone,Meter,InteriorEquipment:Electricity:Zone:MECHANICAL_49 [J]
Zone,Meter,General:InteriorEquipment:Electricity:Zone:MECHANICAL_49 [J]
Zone,Meter,InteriorEquipment:Electricity:Zone:CONFERENCE_50 [J]
Zone,Meter,General:InteriorEquipment:Electricity:Zone:CONFERENCE_50 [J]
Zone,Meter,InteriorEquipment:Electricity:Zone:MECHANICAL_50 [J]
Zone,Meter,General:InteriorEquipment:Electricity:Zone:MECHANICAL_50 [J]
Zone,Meter,InteriorEquipment:Electricity:Zone:BREAK_ROOM_51 [J]
Zone,Meter,General:InteriorEquipment:Electricity:Zone:BREAK_ROOM_51 [J]
Zone,Meter,InteriorEquipment:Electricity:Zone:MECHANICAL_51 [J]
Zone,Meter,General:InteriorEquipment:Electricity:Zone:MECHANICAL_51 [J]
Zone,Meter,InteriorEquipment:Electricity:Zone:OFFICE_PRIVATE_51 [J]
Zone,Meter,General:InteriorEquipment:Electricity:Zone:OFFICE_PRIVATE_51 [J]
Zone,Meter,InteriorEquipment:Electricity:Zone:OFFICE_OPEN_52 [J]
Zone,Meter,General:InteriorEquipment:Electricity:Zone:OFFICE_OPEN_52 [J]
Zone,Meter,InteriorEquipment:Electricity:Zone:OFFICE_PRIVATE_52 [J]
Zone,Meter,General:InteriorEquipment:Electricity:Zone:OFFICE_PRIVATE_52 [J]
Zone,Meter,InteriorEquipment:Electricity:Zone:STORAGE_52 [J]
Zone,Meter,General:InteriorEquipment:Electricity:Zone:STORAGE_52 [J]
Zone,Meter,InteriorEquipment:Electricity:Zone:CONFERENCE_53 [J]
Zone,Meter,General:InteriorEquipment:Electricity:Zone:CONFERENCE_53 [J]
Zone,Meter,InteriorEquipment:Electricity:Zone:OFFICE_PRIVATE_53 [J]
Zone,Meter,General:InteriorEquipment:Electricity:Zone:OFFICE_PRIVATE_53 [J]
Zone,Meter,InteriorEquipment:Electricity:Zone:BREAK_ROOM_54 [J]
Zone,Meter,General:InteriorEquipment:Electricity:Zone:BREAK_ROOM_54 [J]
Zone,Meter,InteriorEquipment:Electricity:Zone:OFFICE_OPEN_55 [J]
Zone,Meter,General:InteriorEquipment:Electricity:Zone:OFFICE_OPEN_55 [J]
Zone,Meter,InteriorEquipment:Electricity:Zone:OFFICE_PRIVATE_55 [J]
Zone,Meter,General:InteriorEquipment:Electricity:Zone:OFFICE_PRIVATE_55 [J]
Zone,Meter,InteriorEquipment:Electricity:Zone:LOBBY_56 [J]
Zone,Meter,General:InteriorEquipment:Electricity:Zone:LOBBY_56 [J]
Zone,Meter,InteriorEquipment:Electricity:Zone:CONFERENCE_56 [J]
Zone,Meter,General:InteriorEquipment:Electricity:Zone:CONFERENCE_56 [J]
Zone,Meter,InteriorEquipment:Electricity:Zone:BREAK_ROOM_56 [J]
Zone,Meter,General:InteriorEquipment:Electricity:Zone:BREAK_ROOM_56 [J]
Zone,Meter,InteriorEquipment:Electricity:Zone:OFFICE_PRIVATE_56 [J]
Zone,Meter,General:InteriorEquipment:Electricity:Zone:OFFICE_PRIVATE_56 [J]
Zone,Meter,InteriorEquipment:Electricity:Zone:OFFICE_OPEN_57 [J]
Zone,Meter,General:InteriorEquipment:Electricity:Zone:OFFICE_OPEN_57 [J]
Zone,Meter,InteriorEquipment:Electricity:Zone:STORAGE_57 [J]
Zone,Meter,General:InteriorEquipment:Electricity:Zone:STORAGE_57 [J]
Zone,Meter,InteriorEquipment:Electricity:Zone:CONFERENCE_58 [J]
Zone,Meter,General:InteriorEquipment:Electricity:Zone:CONFERENCE_58 [J]
Zone,Meter,InteriorEquipment:Electricity:Zone:MECHANICAL_58 [J]
Zone,Meter,General:InteriorEquipment:Electricity:Zone:MECHANICAL_58 [J]
Zone,Meter,InteriorEquipment:Electricity:Zone:OFFICE_PRIVATE_58 [J]
Zone,Meter,General:InteriorEquipment:Electricity:Zone:OFFICE_PRIVATE_58 [J]
Zone,Meter,InteriorEquipment:Electricity:Zone:OFFICE_OPEN_59 [J]
Zone,Meter,General:InteriorEquipment:Electricity:Zone:OFFICE_OPEN_59 [J]
Zone,Meter,InteriorEquipment:Electricity:Zone:OFFICE_PRIVATE_59 [J]
Zone,Meter,General:InteriorEquipment:Electricity:Zone:OFFICE_PRIVATE_59 [J]
Zone,Meter,InteriorEquipment:Electricity:Zone:STORAGE_59 [J]
Zone,Meter,General:InteriorEquipment:Electricity:Zone:STORAGE_59 [J]
Zone,Meter,InteriorEquipment:Electricity:Zone:CONFERENCE_60 [J]
Zone,Meter,General:InteriorEquipment:Electricity:Zone:CONFERENCE_60 [J]
Zone,Meter,InteriorEquipment:Electricity:Zone:STORAGE_60 [J]
Zone,Meter,General:InteriorEquipment:Electricity:Zone:STORAGE_60 [J]
Zone,Meter,InteriorEquipment:Electricity:Zone:BREAK_ROOM_61 [J]
Zone,Meter,General:InteriorEquipment:Electricity:Zone:BREAK_ROOM_61 [J]
Zone,Meter,InteriorEquipment:Electricity:Zone:BREAK_ROOM_62 [J]
Zone,Meter,General:InteriorEquipment:Electricity:Zone:BREAK_ROOM_62 [J]
Zone,Meter,InteriorEquipment:Electricity:Zone:MECHANICAL_62 [J]
Zone,Meter,General:InteriorEquipment:Electricity:Zone:MECHANICAL_62 [J]
Zone,Meter,InteriorEquipment:Electricity:Zone:STORAGE_62 [J]
Zone,Meter,General:InteriorEquipment:Electricity:Zone:STORAGE_62 [J]
Zone,Meter,InteriorEquipment:Electricity:Zone:OFFICE_OPEN_63 [J]
Zone,Meter,General:InteriorEquipment:Electricity:Zone:OFFICE_OPEN_63 [J]
Zone,Meter,InteriorEquipment:Electricity:Zone:OFFICE_PRIVATE_63 [J]
Zone,Meter,General:InteriorEquipment:Electricity:Zone:OFFICE_PRIVATE_63 [J]
Zone,Meter,InteriorEquipment:Electricity:Zone:CONFERENCE_64 [J]
Zone,Meter,General:InteriorEquipment:Electricity:Zone:CONFERENCE_64 [J]
Zone,Meter,InteriorEquipment:Electricity:Zone:BREAK_ROOM_64 [J]
Zone,Meter,General:InteriorEquipment:Electricity:Zone:BREAK_ROOM_64 [J]
Zone,Meter,InteriorEquipment:Electricity:Zone:LOBBY_65 [J]
Zone,Meter,General:InteriorEquipment:Electricity:Zone:LOBBY_65 [J]
Zone,Meter,InteriorEquipment:Electricity:Zone:STORAGE_65 [J]
Zone,Meter,General:InteriorEquipment:Electricity:Zone:STORAGE_65 [J]
Zone,Meter,InteriorEquipment:Electricity:Zone:MECHANICAL_66 [J]
Zone,Meter,General:InteriorEquipment:Electricity:Zone:MECHANICAL_66 [J]
Zone,Meter,InteriorEquipment:Electricity:Zone:CONFERENCE_67 [J]
Zone,Meter,General:InteriorEquipment:Electricity:Zone:CONFERENCE_67 [J]
Zone,Meter,InteriorEquipment:Electricity:Zone:BREAK_ROOM_67 [J]
Zone,Meter,General:InteriorEquipment:Electricity:Zone:BREAK_ROOM_67 [J]
Zone,Meter,InteriorEquipment:Electricity:Zone:STORAGE_67 [J]
Zone,Meter,General:InteriorEquipment:Electricity:Zone:STORAGE_67 [J]
Zone,Meter,InteriorEquipment:Electricity:Zone:CONFERENCE_68 [J]
Zone,Meter,General:InteriorEquipment:Electricity:Zone:CONFERENCE_68 [J]
Zone,Meter,InteriorEquipment:Electricity:Zone:BREAK_ROOM_68 [J]
Zone,Meter,General:InteriorEquipment:Electricity:Zone:BREAK_ROOM_68 [J]
Zone,Meter,InteriorEquipment:Electricity:Zone:STORAGE_68 [J]
Zone,Meter,General:InteriorEquipment:Electricity:Zone:STORAGE_68 [J]
Zone,Meter,InteriorEquipment:Electricity:Zone:CONFERENCE_69 [J]
Zone,Meter,General:InteriorEquipment:Electricity:Zone:CONFERENCE_69 [J]
Zone,Meter,InteriorEquipment:Electricity:Zone:MECHANICAL_69 [J]
Zone,Meter,General:InteriorEquipment:Electricity:Zone:MECHANICAL_69 [J]
Zone,Meter,InteriorEquipment:Electricity:Zone:OFFICE_PRIVATE_69 [J]
Zone,Meter,General:InteriorEquipment:Electricity:Zone:OFFICE_PRIVATE_69 [J]
Zone,Meter,InteriorEquipment:Electricity:Zone:STORAGE_69 [J]
Zone,Meter,General:InteriorEquipment:Electricity:Zone:STORAGE_69 [J]
Zone,Meter,InteriorEquipment:Electricity:Zone:LOBBY_70 [J]
Zone,Meter,General:InteriorEquipment:Electricity:Zone:LOBBY_70 [J]
Zone,Meter,InteriorEquipment:Electricity:Zone:BREAK_ROOM_70 [J]
Zone,Meter,General:InteriorEquipment:Electricity:Zone:BREAK_ROOM_70 [J]
Zone,Meter,InteriorEquipment:Electricity:Zone:MECHANICAL_70 [J]
Zone,Meter,General:InteriorEquipment:Electricity:Zone:MECHANICAL_70 [J]
Zone,Meter,InteriorEquipment:Electricity:Zone:OFFICE_PRIVATE_70 [J]
Zone,Meter,General:InteriorEquipment:Electricity:Zone:OFFICE_PRIVATE_70 [J]
Zone,Meter,InteriorEquipment:Electricity:Zone:STORAGE_70 [J]
Zone,Meter,General:InteriorEquipment:Electricity:Zone:STORAGE_70 [J]
Zone,Meter,InteriorEquipment:Electricity:Zone:CONFERENCE_71 [J]
Zone,Meter,General:InteriorEquipment:Electricity:Zone:CONFERENCE_71 [J]
Zone,Meter,InteriorEquipment:Electricity:Zone:OFFICE_PRIVATE_71 [J]
Zone,Meter,General:InteriorEquipment:Electricity:Zone:OFFICE_PRIVATE_71 [J]
Zone,Meter,InteriorEquipment:Electricity:Zone:OFFICE_PRIVATE_72 [J]
Zone,Meter,General:InteriorEquipment:Electricity:Zone:OFFICE_PRIVATE_72 [J]
Zone,Meter,InteriorEquipment:Electricity:Zone:CONFERENCE_73 [J]
Zone,Meter,General:InteriorEquipment:Electricity:Zone:CONFERENCE_73 [J]
Zone,Meter,InteriorEquipment:Electricity:Zone:STORAGE_73 [J]
Zone,Meter,General:InteriorEquipment:Electricity:Zone:STORAGE_73 [J]
Zone,Meter,InteriorEquipment:Electricity:Zone:LOBBY_74 [J]
Zone,Meter,General:InteriorEquipment:Electricity:Zone:LOBBY_74 [J]
Zone,Meter,InteriorEquipment:Electricity:Zone:CONFERENCE_74 [J]
Zone,Meter,General:InteriorEquipment:Electricity:Zone:CONFERENCE_74 [J]
Zone,Meter,InteriorEquipment:Electricity:Zone:MECHANICAL_74 [J]
Zone,Meter,General:InteriorEquipment:Electricity:Zone:MECHANICAL_74 [J]
Zone,Meter,InteriorEquipment:Electricity:Zone:STORAGE_74 [J]
Zone,Meter,General:InteriorEquipment:Electricity:Zone:STORAGE_74 [J]
Zone,Meter,InteriorEquipment:Electricity:Zone:MECHANICAL_75 [J]
Zone,Meter,General:InteriorEquipment:Electricity:Zone:MECHANICAL_75 [J]
Zone,Meter,InteriorEquipment:Electricity:Zone:STORAGE_75 [J]
Zone,Meter,General:InteriorEquipment:Electricity:Zone:STORAGE_75 [J]
Zone,Meter,InteriorEquipment:Electricity:Zone:STORAGE_76 [J]
Zone,Meter,General:InteriorEquipment:Electricity:Zone:STORAGE_76 [J]
Zone,Meter,InteriorEquipment:Electricity:Zone:LOBBY_77 [J]
Zone,Meter,General:InteriorEquipment:Electricity:Zone:LOBBY_77 [J]
Zone,Meter,InteriorEquipment:Electricity:Zone:CONFERENCE_77 [J]
Zone,Meter,General:InteriorEquipment:Electricity:Zone:CONFERENCE_77 [J]
Zone,Meter,InteriorEquipment:Electricity:Zone:BREAK_ROOM_77 [J]
Zone,Meter,General:InteriorEquipment:Electricity:Zone:BREAK_ROOM_77 [J]
Zone,Meter,InteriorEquipment:Electricity:Zone:STORAGE_77 [J]
Zone,Meter,General:InteriorEquipment:Electricity:Zone:STORAGE_77 [J]
Zone,Meter,InteriorEquipment:Electricity:Zone:CONFERENCE_78 [J]
Zone,Meter,General:InteriorEquipment:Electricity:Zone:CONFERENCE_78 [J]
Zone,Meter,InteriorEquipment:Electricity:Zone:CONFERENCE_79 [J]
Zone,Meter,General:InteriorEquipment:Electricity:Zone:CONFERENCE_79 [J]
Zone,Meter,InteriorEquipment:Electricity:Zone:BREAK_ROOM_79 [J]
Zone,Meter,General:InteriorEquipment:Electricity:Zone:BREAK_ROOM_79 [J]
Zone,Meter,InteriorEquipment:Electricity:Zone:STORAGE_79 [J]
Zone,Meter,General:InteriorEquipment:Electricity:Zone:STORAGE_79 [J]
Zone,Meter,InteriorEquipment:Electricity:Zone:CONFERENCE_80 [J]
Zone,Meter,General:InteriorEquipment:Electricity:Zone:CONFERENCE_80 [J]
Zone,Meter,InteriorEquipment:Electricity:Zone:BREAK_ROOM_80 [J]
Zone,Meter,General:InteriorEquipment:Electricity:Zone:BREAK_ROOM_80 [J]
Zone,Meter,InteriorEquipment:Electricity:Zone:OFFICE_PRIVATE_80 [J]
Zone,Meter,General:InteriorEquipment:Electricity:Zone:OFFICE_PRIVATE_80 [J]
Zone,Meter,InteriorEquipment:Electricity:Zone:LOBBY_81 [J]
Zone,Meter,General:InteriorEquipment:Electricity:Zone:LOBBY_81 [J]
Zone,Meter,InteriorEquipment:Electricity:Zone:OFFICE_PRIVATE_81 [J]
Zone,Meter,General:InteriorEquipment:Electricity:Zone:OFFICE_PRIVATE_81 [J]
Zone,Meter,InteriorEquipment:Electricity:Zone:CONFERENCE_82 [J]
Zone,Meter,General:InteriorEquipment:Electricity:Zone:CONFERENCE_82 [J]
Zone,Meter,InteriorEquipment:Electricity:Zone:OFFICE_PRIVATE_82 [J]
Zone,Meter,General:InteriorEquipment:Electricity:Zone:OFFICE_PRIVATE_82 [J]
Zone,Meter,InteriorEquipment:Electricity:Zone:LOBBY_83 [J]
Zone,Meter,General:InteriorEquipment:Electricity:Zone:LOBBY_83 [J]
Zone,Meter,InteriorEquipment:Electricity:Zone:OFFICE_PRIVATE_83 [J]
Zone,Meter,General:InteriorEquipment:Electricity:Zone:OFFICE_PRIVATE_83 [J]
Zone,Meter,InteriorEquipment:Electricity:Zone:STORAGE_83 [J]
Zone,Meter,General:InteriorEquipment:Electricity:Zone:STORAGE_83 [J]
Zone,Meter,InteriorEquipment:Electricity:Zone:LOBBY_84 [J]
Zone,Meter,General:InteriorEquipment:Electricity:Zone:LOBBY_84 [J]
Zone,Meter,InteriorEquipment:Electricity:Zone:CONFERENCE_84 [J]
Zone,Meter,General:InteriorEquipment:Electricity:Zone:CONFERENCE_84 [J]
Zone,Meter,InteriorEquipment:Electricity:Zone:OFFICE_PRIVATE_84 [J]
Zone,Meter,General:InteriorEquipment:Electricity:Zone:OFFICE_PRIVATE_84 [J]
Zone,Meter,InteriorEquipment:Electricity:Zone:CONFERENCE_85 [J]
Zone,Meter,General:InteriorEquipment:Electricity:Zone:CONFERENCE_85 [J]
Zone,Meter,InteriorEquipment:Electricity:Zone:MECHANICAL_85 [J]
Zone,Meter,General:InteriorEquipment:Electricity:Zone:MECHANICAL_85 [J]
Zone,Meter,InteriorEquipment:Electricity:Zone:OFFICE_PRIVATE_85 [J]
Zone,Meter,General:InteriorEquipment:Electricity:Zone:OFFICE_PRIVATE_85 [J]
Zone,Meter,InteriorEquipment:Electricity:Zone:CONFERENCE_86 [J]
Zone,Meter,General:InteriorEquipment:Electricity:Zone:CONFERENCE_86 [J]
Zone,Meter,InteriorEquipment:Electricity:Zone:BREAK_ROOM_86 [J]
Zone,Meter,General:InteriorEquipment:Electricity:Zone:BREAK_ROOM_86 [J]
Zone,Meter,InteriorEquipment:Electricity:Zone:OFFICE_PRIVATE_86 [J]
Zone,Meter,General:InteriorEquipment:Electricity:Zone:OFFICE_PRIVATE_86 [J]
Zone,Meter,InteriorEquipment:Electricity:Zone:STORAGE_86 [J]
Zone,Meter,General:InteriorEquipment:Electricity:Zone:STORAGE_86 [J]
Zone,Meter,InteriorEquipment:Electricity:Zone:CONFERENCE_87 [J]
Zone,Meter,General:InteriorEquipment:Electricity:Zone:CONFERENCE_87 [J]
Zone,Meter,InteriorEquipment:Electricity:Zone:BREAK_ROOM_87 [J]
Zone,Meter,General:InteriorEquipment:Electricity:Zone:BREAK_ROOM_87 [J]
Zone,Meter,InteriorEquipment:Electricity:Zone:MECHANICAL_87 [J]
Zone,Meter,General:InteriorEquipment:Electricity:Zone:MECHANICAL_87 [J]
Zone,Meter,InteriorEquipment:Electricity:Zone:OFFICE_PRIVATE_87 [J]
Zone,Meter,General:InteriorEquipment:Electricity:Zone:OFFICE_PRIVATE_87 [J]
Zone,Meter,InteriorEquipment:Electricity:Zone:STORAGE_87 [J]
Zone,Meter,General:InteriorEquipment:Electricity:Zone:STORAGE_87 [J]
Zone,Meter,InteriorEquipment:Electricity:Zone:BREAK_ROOM_88 [J]
Zone,Meter,General:InteriorEquipment:Electricity:Zone:BREAK_ROOM_88 [J]
Zone,Meter,InteriorEquipment:Electricity:Zone:OFFICE_PRIVATE_88 [J]
Zone,Meter,General:InteriorEquipment:Electricity:Zone:OFFICE_PRIVATE_88 [J]
Zone,Meter,InteriorEquipment:Electricity:Zone:MECHANICAL_89 [J]
Zone,Meter,General:InteriorEquipment:Electricity:Zone:MECHANICAL_89 [J]
Zone,Meter,InteriorEquipment:Electricity:Zone:OFFICE_PRIVATE_89 [J]
Zone,Meter,General:InteriorEquipment:Electricity:Zone:OFFICE_PRIVATE_89 [J]
Zone,Meter,InteriorEquipment:Electricity:Zone:CONFERENCE_90 [J]
Zone,Meter,General:InteriorEquipment:Electricity:Zone:CONFERENCE_90 [J]
Zone,Meter,InteriorEquipment:Electricity:Zone:BREAK_ROOM_90 [J]
Zone,Meter,General:InteriorEquipment:Electricity:Zone:BREAK_ROOM_90 [J]
Zone,Meter,InteriorEquipment:Electricity:Zone:OFFICE_OPEN_91 [J]
Zone,Meter,General:InteriorEquipment:Electricity:Zone:OFFICE_OPEN_91 [J]
Zone,Meter,InteriorEquipment:Electricity:Zone:OFFICE_PRIVATE_91 [J]
Zone,Meter,General:InteriorEquipment:Electricity:Zone:OFFICE_PRIVATE_91 [J]
Zone,Meter,InteriorEquipment:Electricity:Zone:CONFERENCE_92 [J]
Zone,Meter,General:InteriorEquipment:Electricity:Zone:CONFERENCE_92 [J]
Zone,Meter,InteriorEquipment:Electricity:Zone:BREAK_ROOM_92 [J]
Zone,Meter,General:InteriorEquipment:Electricity:Zone:BREAK_ROOM_92 [J]
Zone,Meter,InteriorEquipment:Electricity:Zone:MECHANICAL_92 [J]
Zone,Meter,General:InteriorEquipment:Electricity:Zone:MECHANICAL_92 [J]
Zone,Meter,InteriorEquipment:Electricity:Zone:OFFICE_PRIVATE_92 [J]
Zone,Meter,General:InteriorEquipment:Electricity:Zone:OFFICE_PRIVATE_92 [J]
Zone,Meter,InteriorEquipment:Electricity:Zone:OFFICE_PRIVATE_93 [J]
Zone,Meter,General:InteriorEquipment:Electricity:Zone:OFFICE_PRIVATE_93 [J]
Zone,Meter,InteriorEquipment:Electricity:Zone:STORAGE_93 [J]
Zone,Meter,General:InteriorEquipment:Electricity:Zone:STORAGE_93 [J]
Zone,Meter,InteriorEquipment:Electricity:Zone:CONFERENCE_94 [J]
Zone,Meter,General:InteriorEquipment:Electricity:Zone:CONFERENCE_94 [J]
Zone,Meter,InteriorEquipment:Electricity:Zone:BREAK_ROOM_94 [J]
Zone,Meter,General:InteriorEquipment:Electricity:Zone:BREAK_ROOM_94 [J]
Zone,Meter,InteriorEquipment:Electricity:Zone:MECHANICAL_94 [J]
Zone,Meter,General:InteriorEquipment:Electricity:Zone:MECHANICAL_94 [J]
Zone,Meter,InteriorEquipment:Electricity:Zone:OFFICE_PRIVATE_94 [J]
Zone,Meter,General:InteriorEquipment:Electricity:Zone:OFFICE_PRIVATE_94 [J]
Zone,Meter,InteriorEquipment:Electricity:Zone:STORAGE_94 [J]
Zone,Meter,General:InteriorEquipment:Electricity:Zone:STORAGE_94 [J]
Zone,Meter,InteriorEquipment:Electricity:Zone:MECHANICAL_95 [J]
Zone,Meter,General:InteriorEquipment:Electricity:Zone:MECHANICAL_95 [J]
Zone,Meter,InteriorEquipment:Electricity:Zone:OFFICE_PRIVATE_95 [J]
Zone,Meter,General:InteriorEquipment:Electricity:Zone:OFFICE_PRIVATE_95 [J]
Zone,Meter,InteriorEquipment:Electricity:Zone:OFFICE_PRIVATE_96 [J]
Zone,Meter,General:InteriorEquipment:Electricity:Zone:OFFICE_PRIVATE_96 [J]
[...]
Zone,Meter,General:Cooling:EnergyTransfer:Zone:LOBBY_77 [J]
Zone,Meter,EnergyTransfer:Zone:CONFERENCE_77 [J]
Zone,Meter,Heating:EnergyTransfer:Zone:CONFERENCE_77 [J]
Zone,Meter,General:Heating:EnergyTransfer:Zone:CONFERENCE_77 [J]
Zone,Meter,Cooling:EnergyTransfer:Zone:CONFERENCE_77 [J]
Zone,Meter,General:Cooling:EnergyTransfer:Zone:CONFERENCE_77 [J]
Zone,Meter,EnergyTransfer:Zone:BREAK_ROOM_77 [J]
Zone,Meter,Heating:EnergyTransfer:Zone:BREAK_ROOM_77 [J]
Zone,Meter,General:Heating:EnergyTransfer:Zone:BREAK_ROOM_77 [J]
Zone,Meter,Cooling:EnergyTransfer:Zone:BREAK_ROOM_77 [J]
Zone,Meter,General:Cooling:EnergyTransfer:Zone:BREAK_ROOM_77 [J]
Zone,Meter,EnergyTransfer:Zone:STORAGE_77 [J]
Zone,Meter,Heating:EnergyTransfer:Zone:STORAGE_77 [J]
Zone,Meter,General:Heating:EnergyTransfer:Zone:STORAGE_77 [J]
Zone,Meter,Cooling:EnergyTransfer:Zone:STORAGE_77 [J]
Zone,Meter,General:Cooling:EnergyTransfer:Zone:STORAGE_77 [J]
Zone,Meter,EnergyTransfer:Zone:CONFERENCE_78 [J]
Zone,Meter,Heating:EnergyTransfer:Zone:CONFERENCE_78 [J]
Zone,Meter,General:Heating:EnergyTransfer:Zone:CONFERENCE_78 [J]
Zone,Meter,Cooling:EnergyTransfer:Zone:CONFERENCE_78 [J]
Zone,Meter,General:Cooling:EnergyTransfer:Zone:CONFERENCE_78 [J]
Zone,Meter,EnergyTransfer:Zone:CONFERENCE_79 [J]
Zone,Meter,Heating:EnergyTransfer:Zone:CONFERENCE_79 [J]
Zone,Meter,General:Heating:EnergyTransfer:Zone:CONFERENCE_79 [J]
Zone,Meter,Cooling:EnergyTransfer:Zone:CONFERENCE_79 [J]
Zone,Meter,General:Cooling:EnergyTransfer:Zone:CONFERENCE_79 [J]
Zone,Meter,EnergyTransfer:Zone:BREAK_ROOM_79 [J]
Zone,Meter,Heating:EnergyTransfer:Zone:BREAK_ROOM_79 [J]
Zone,Meter,General:Heating:EnergyTransfer:Zone:BREAK_ROOM_79 [J]
Zone,Meter,Cooling:EnergyTransfer:Zone:BREAK_ROOM_79 [J]
Zone,Meter,General:Cooling:EnergyTransfer:Zone:BREAK_ROOM_79 [J]
Zone,Meter,EnergyTransfer:Zone:STORAGE_79 [J]
Zone,Meter,Heating:EnergyTransfer:Zone:STORAGE_79 [J]
Zone,Meter,General:Heating:EnergyTransfer:Zone:STORAGE_79 [J]
Zone,Meter,Cooling:EnergyTransfer:Zone:STORAGE_79 [J]
Zone,Meter,General:Cooling:EnergyTransfer:Zone:STORAGE_79 [J]
Zone,Meter,EnergyTransfer:Zone:CONFERENCE_80 [J]
Zone,Meter,Heating:EnergyTransfer:Zone:CONFERENCE_80 [J]
Zone,Meter,General:Heating:EnergyTransfer:Zone:CONFERENCE_80 [J]
Zone,Meter,Cooling:EnergyTransfer:Zone:CONFERENCE_80 [J]
Zone,Meter,General:Cooling:EnergyTransfer:Zone:CONFERENCE_80 [J]
Zone,Meter,EnergyTransfer:Zone:BREAK_ROOM_80 [J]
Zone,Meter,Heating:EnergyTransfer:Zone:BREAK_ROOM_80 [J]
Zone,Meter,General:Heating:EnergyTransfer:Zone:BREAK_ROOM_80 [J]
Zone,Meter,Cooling:EnergyTransfer:Zone:BREAK_ROOM_80 [J]
Zone,Meter,General:Cooling:EnergyTransfer:Zone:BREAK_ROOM_80 [J]
Zone,Meter,EnergyTransfer:Zone:OFFICE_PRIVATE_80 [J]
Zone,Meter,Heating:EnergyTransfer:Zone:OFFICE_PRIVATE_80 [J]
Zone,Meter,General:Heating:EnergyTransfer:Zone:OFFICE_PRIVATE_80 [J]
Zone,Meter,Cooling:EnergyTransfer:Zone:OFFICE_PRIVATE_80 [J]
Zone,Meter,General:Cooling:EnergyTransfer:Zone:OFFICE_PRIVATE_80 [J]
Zone,Meter,EnergyTransfer:Zone:LOBBY_81 [J]
Zone,Meter,Heating:EnergyTransfer:Zone:LOBBY_81 [J]
Zone,Meter,General:Heating:EnergyTransfer:Zone:LOBBY_81 [J]
Zone,Meter,Cooling:EnergyTransfer:Zone:LOBBY_81 [J]
Zone,Meter,General:Cooling:EnergyTransfer:Zone:LOBBY_81 [J]
Zone,Meter,EnergyTransfer:Zone:OFFICE_PRIVATE_81 [J]
Zone,Meter,Heating:EnergyTransfer:Zone:OFFICE_PRIVATE_81 [J]
Zone,Meter,General:Heating:EnergyTransfer:Zone:OFFICE_PRIVATE_81 [J]
Zone,Meter,Cooling:EnergyTransfer:Zone:OFFICE_PRIVATE_81 [J]
Zone,Meter,General:Cooling:EnergyTransfer:Zone:OFFICE_PRIVATE_81 [J]
Zone,Meter,EnergyTransfer:Zone:CONFERENCE_82 [J]
Zone,Meter,Heating:EnergyTransfer:Zone:CONFERENCE_82 [J]
Zone,Meter,General:Heating:EnergyTransfer:Zone:CONFERENCE_82 [J]
Zone,Meter,Cooling:EnergyTransfer:Zone:CONFERENCE_82 [J]
Zone,Meter,General:Cooling:EnergyTransfer:Zone:CONFERENCE_82 [J]
Zone,Meter,EnergyTransfer:Zone:OFFICE_PRIVATE_82 [J]
Zone,Meter,Heating:EnergyTransfer:Zone:OFFICE_PRIVATE_82 [J]
Zone,Meter,General:Heating:EnergyTransfer:Zone:OFFICE_PRIVATE_82 [J]
Zone,Meter,Cooling:EnergyTransfer:Zone:OFFICE_PRIVATE_82 [J]
Zone,Meter,General:Cooling:EnergyTransfer:Zone:OFFICE_PRIVATE_82 [J]
Zone,Meter,EnergyTransfer:Zone:LOBBY_83 [J]
Zone,Meter,Heating:EnergyTransfer:Zone:LOBBY_83 [J]
Zone,Meter,General:Heating:EnergyTransfer:Zone:LOBBY_83 [J]
Zone,Meter,Cooling:EnergyTransfer:Zone:LOBBY_83 [J]
Zone,Meter,General:Cooling:EnergyTransfer:Zone:LOBBY_83 [J]
Zone,Meter,EnergyTransfer:Zone:OFFICE_PRIVATE_83 [J]
Zone,Meter,Heating:EnergyTransfer:Zone:OFFICE_PRIVATE_83 [J]
Zone,Meter,General:Heating:EnergyTransfer:Zone:OFFICE_PRIVATE_83 [J]
Zone,Meter,Cooling:EnergyTransfer:Zone:OFFICE_PRIVATE_83 [J]
Zone,Meter,General:Cooling:EnergyTransfer:Zone:OFFICE_PRIVATE_83 [J]
Zone,Meter,EnergyTransfer:Zone:STORAGE_83 [J]
Zone,Meter,Heating:EnergyTransfer:Zone:STORAGE_83 [J]
Zone,Meter,General:Heating:EnergyTransfer:Zone:STORAGE_83 [J]
Zone,Meter,Cooling:EnergyTransfer:Zone:STORAGE_83 [J]
Zone,Meter,General:Cooling:EnergyTransfer:Zone:STORAGE_83 [J]
Zone,Meter,EnergyTransfer:Zone:LOBBY_84 [J]
Zone,Meter,Heating:EnergyTransfer:Zone:LOBBY_84 [J]
Zone,Meter,General:Heating:EnergyTransfer:Zone:LOBBY_84 [J]
Zone,Meter,Cooling:EnergyTransfer:Zone:LOBBY_84 [J]
Zone,Meter,General:Cooling:EnergyTransfer:Zone:LOBBY_84 [J]
Zone,Meter,EnergyTransfer:Zone:CONFERENCE_84 [J]
Zone,Meter,Heating:EnergyTransfer:Zone:CONFERENCE_84 [J]
Zone,Meter,General:Heating:EnergyTransfer:Zone:CONFERENCE_84 [J]
Zone,Meter,Cooling:EnergyTransfer:Zone:CONFERENCE_84 [J]
Zone,Meter,General:Cooling:EnergyTransfer:Zone:CONFERENCE_84 [J]
Zone,Meter,EnergyTransfer:Zone:OFFICE_PRIVATE_84 [J]
Zone,Meter,Heating:EnergyTransfer:Zone:OFFICE_PRIVATE_84 [J]
Zone,Meter,General:Heating:EnergyTransfer:Zone:OFFICE_PRIVATE_84 [J]
Zone,Meter,Cooling:EnergyTransfer:Zone:OFFICE_PRIVATE_84 [J]
Zone,Meter,General:Cooling:EnergyTransfer:Zone:OFFICE_PRIVATE_84 [J]
Zone,Meter,EnergyTransfer:Zone:CONFERENCE_85 [J]
Zone,Meter,Heating:EnergyTransfer:Zone:CONFERENCE_85 [J]
Zone,Meter,General:Heating:EnergyTransfer:Zone:CONFERENCE_85 [J]
Zone,Meter,Cooling:EnergyTransfer:Zone:CONFERENCE_85 [J]
Zone,Meter,General:Cooling:EnergyTransfer:Zone:CONFERENCE_85 [J]
Zone,Meter,EnergyTransfer:Zone:MECHANICAL_85 [J]
Zone,Meter,Heating:EnergyTransfer:Zone:MECHANICAL_85 [J]
Zone,Meter,General:Heating:EnergyTransfer:Zone:MECHANICAL_85 [J]
Zone,Meter,Cooling:EnergyTransfer:Zone:MECHANICAL_85 [J]
Zone,Meter,General:Cooling:EnergyTransfer:Zone:MECHANICAL_85 [J]
Zone,Meter,EnergyTransfer:Zone:OFFICE_PRIVATE_85 [J]
Zone,Meter,Heating:EnergyTransfer:Zone:OFFICE_PRIVATE_85 [J]
Zone,Meter,General:Heating:EnergyTransfer:Zone:OFFICE_PRIVATE_85 [J]
Zone,Meter,Cooling:EnergyTransfer:Zone:OFFICE_PRIVATE_85 [J]
Zone,Meter,General:Cooling:EnergyTransfer:Zone:OFFICE_PRIVATE_85 [J]
Zone,Meter,EnergyTransfer:Zone:CONFERENCE_86 [J]
Zone,Meter,Heating:EnergyTransfer:Zone:CONFERENCE_86 [J]
Zone,Meter,General:Heating:EnergyTransfer:Zone:CONFERENCE_86 [J]
Zone,Meter,Cooling:EnergyTransfer:Zone:CONFERENCE_86 [J]
Zone,Meter,General:Cooling:EnergyTransfer:Zone:CONFERENCE_86 [J]
Zone,Meter,EnergyTransfer:Zone:BREAK_ROOM_86 [J]
Zone,Meter,Heating:EnergyTransfer:Zone:BREAK_ROOM_86 [J]
Zone,Meter,General:Heating:EnergyTransfer:Zone:BREAK_ROOM_86 [J]
Zone,Meter,Cooling:EnergyTransfer:Zone:BREAK_ROOM_86 [J]
Zone,Meter,General:Cooling:EnergyTransfer:Zone:BREAK_ROOM_86 [J]
Zone,Meter,EnergyTransfer:Zone:OFFICE_PRIVATE_86 [J]
Zone,Meter,Heating:EnergyTransfer:Zone:OFFICE_PRIVATE_86 [J]
Zone,Meter,General:Heating:EnergyTransfer:Zone:OFFICE_PRIVATE_86 [J]
Zone,Meter,Cooling:EnergyTransfer:Zone:OFFICE_PRIVATE_86 [J]
Zone,Meter,General:Cooling:EnergyTransfer:Zone:OFFICE_PRIVATE_86 [J]
Zone,Meter,EnergyTransfer:Zone:STORAGE_86 [J]
Zone,Meter,Heating:EnergyTransfer:Zone:STORAGE_86 [J]
Zone,Meter,General:Heating:EnergyTransfer:Zone:STORAGE_86 [J]
Zone,Meter,Cooling:EnergyTransfer:Zone:STORAGE_86 [J]
Zone,Meter,General:Cooling:EnergyTransfer:Zone:STORAGE_86 [J]
Zone,Meter,EnergyTransfer:Zone:CONFERENCE_87 [J]
Zone,Meter,Heating:EnergyTransfer:Zone:CONFERENCE_87 [J]
Zone,Meter,General:Heating:EnergyTransfer:Zone:CONFERENCE_87 [J]
Zone,Meter,Cooling:EnergyTransfer:Zone:CONFERENCE_87 [J]
Zone,Meter,General:Cooling:EnergyTransfer:Zone:CONFERENCE_87 [J]
Zone,Meter,EnergyTransfer:Zone:BREAK_ROOM_87 [J]
Zone,Meter,Heating:EnergyTransfer:Zone:BREAK_ROOM_87 [J]
Zone,Meter,General:Heating:EnergyTransfer:Zone:BREAK_ROOM_87 [J]
Zone,Meter,Cooling:EnergyTransfer:Zone:BREAK_ROOM_87 [J]
Zone,Meter,General:Cooling:EnergyTransfer:Zone:BREAK_ROOM_87 [J]
Zone,Meter,EnergyTransfer:Zone:MECHANICAL_87 [J]
Zone,Meter,Heating:EnergyTransfer:Zone:MECHANICAL_87 [J]
Zone,Meter,General:Heating:EnergyTransfer:Zone:MECHANICAL_87 [J]
Zone,Meter,Cooling:EnergyTransfer:Zone:MECHANICAL_87 [J]
Zone,Meter,General:Cooling:EnergyTransfer:Zone:MECHANICAL_87 [J]
Zone,Meter,EnergyTransfer:Zone:OFFICE_PRIVATE_87 [J]
Zone,Meter,Heating:EnergyTransfer:Zone:OFFICE_PRIVATE_87 [J]
Zone,Meter,General:Heating:EnergyTransfer:Zone:OFFICE_PRIVATE_87 [J]
Zone,Meter,Cooling:EnergyTransfer:Zone:OFFICE_PRIVATE_87 [J]
Zone,Meter,General:Cooling:EnergyTransfer:Zone:OFFICE_PRIVATE_87 [J]
Zone,Meter,EnergyTransfer:Zone:STORAGE_87 [J]
Zone,Meter,Heating:EnergyTransfer:Zone:STORAGE_87 [J]
Zone,Meter,General:Heating:EnergyTransfer:Zone:STORAGE_87 [J]
Zone,Meter,Cooling:EnergyTransfer:Zone:STORAGE_87 [J]
Zone,Meter,General:Cooling:EnergyTransfer:Zone:STORAGE_87 [J]
Zone,Meter,EnergyTransfer:Zone:BREAK_ROOM_88 [J]
Zone,Meter,Heating:EnergyTransfer:Zone:BREAK_ROOM_88 [J]
Zone,Meter,General:Heating:EnergyTransfer:Zone:BREAK_ROOM_88 [J]
Zone,Meter,Cooling:EnergyTransfer:Zone:BREAK_ROOM_88 [J]
Zone,Meter,General:Cooling:EnergyTransfer:Zone:BREAK_ROOM_88 [J]
Zone,Meter,EnergyTransfer:Zone:OFFICE_PRIVATE_88 [J]
Zone,Meter,Heating:EnergyTransfer:Zone:OFFICE_PRIVATE_88 [J]
Zone,Meter,General:Heating:EnergyTransfer:Zone:OFFICE_PRIVATE_88 [J]
Zone,Meter,Cooling:EnergyTransfer:Zone:OFFICE_PRIVATE_88 [J]
Zone,Meter,General:Cooling:EnergyTransfer:Zone:OFFICE_PRIVATE_88 [J]
Zone,Meter,EnergyTransfer:Zone:MECHANICAL_89 [J]
Zone,Meter,Heating:EnergyTransfer:Zone:MECHANICAL_89 [J]
Zone,Meter,General:Heating:EnergyTransfer:Zone:MECHANICAL_89 [J]
Zone,Meter,Cooling:EnergyTransfer:Zone:MECHANICAL_89 [J]
Zone,Meter,General:Cooling:EnergyTransfer:Zone:MECHANICAL_89 [J]
Zone,Meter,EnergyTransfer:Zone:OFFICE_PRIVATE_89 [J]
Zone,Meter,Heating:EnergyTransfer:Zone:OFFICE_PRIVATE_89 [J]
Zone,Meter,General:Heating:EnergyTransfer:Zone:OFFICE_PRIVATE_89 [J]
Zone,Meter,Cooling:EnergyTransfer:Zone:OFFICE_PRIVATE_89 [J]
Zone,Meter,General:Cooling:EnergyTransfer:Zone:OFFICE_PRIVATE_89 [J]
Zone,Meter,EnergyTransfer:Zone:CONFERENCE_90 [J]
Zone,Meter,Heating:EnergyTransfer:Zone:CONFERENCE_90 [J]
Zone,Meter,General:Heating:EnergyTransfer:Zone:CONFERENCE_90 [J]
Zone,Meter,Cooling:EnergyTransfer:Zone:CONFERENCE_90 [J]
Zone,Meter,General:Cooling:EnergyTransfer:Zone:CONFERENCE_90 [J]
Zone,Meter,EnergyTransfer:Zone:BREAK_ROOM_90 [J]
Zone,Meter,Heating:EnergyTransfer:Zone:BREAK_ROOM_90 [J]
Zone,Meter,General:Heating:EnergyTransfer:Zone:BREAK_ROOM_90 [J]
Zone,Meter,Cooling:EnergyTransfer:Zone:BREAK_ROOM_90 [J]
Zone,Meter,General:Cooling:EnergyTransfer:Zone:BREAK_ROOM_90 [J]
Zone,Meter,EnergyTransfer:Zone:OFFICE_OPEN_91 [J]
Zone,Meter,Heating:EnergyTransfer:Zone:OFFICE_OPEN_91 [J]
Zone,Meter,General:Heating:EnergyTransfer:Zone:OFFICE_OPEN_91 [J]
Zone,Meter,Cooling:EnergyTransfer:Zone:OFFICE_OPEN_91 [J]
Zone,Meter,General:Cooling:EnergyTransfer:Zone:OFFICE_OPEN_91 [J]
Zone,Meter,EnergyTransfer:Zone:OFFICE_PRIVATE_91 [J]
Zone,Meter,Heating:EnergyTransfer:Zone:OFFICE_PRIVATE_91 [J]
Zone,Meter,General:Heating:EnergyTransfer:Zone:OFFICE_PRIVATE_91 [J]
Zone,Meter,Cooling:EnergyTransfer:Zone:OFFICE_PRIVATE_91 [J]
Zone,Meter,General:Cooling:EnergyTransfer:Zone:OFFICE_PRIVATE_91 [J]
Zone,Meter,EnergyTransfer:Zone:CONFERENCE_92 [J]
Zone,Meter,Heating:EnergyTransfer:Zone:CONFERENCE_92 [J]
Zone,Meter,General:Heating:EnergyTransfer:Zone:CONFERENCE_92 [J]
Zone,Meter,Cooling:EnergyTransfer:Zone:CONFERENCE_92 [J]
Zone,Meter,General:Cooling:EnergyTransfer:Zone:CONFERENCE_92 [J]
Zone,Meter,EnergyTransfer:Zone:BREAK_ROOM_92 [J]
Zone,Meter,Heating:EnergyTransfer:Zone:BREAK_ROOM_92 [J]
Zone,Meter,General:Heating:EnergyTransfer:Zone:BREAK_ROOM_92 [J]
Zone,Meter,Cooling:EnergyTransfer:Zone:BREAK_ROOM_92 [J]
Zone,Meter,General:Cooling:EnergyTransfer:Zone:BREAK_ROOM_92 [J]
Zone,Meter,EnergyTransfer:Zone:MECHANICAL_92 [J]
Zone,Meter,Heating:EnergyTransfer:Zone:MECHANICAL_92 [J]
Zone,Meter,General:Heating:EnergyTransfer:Zone:MECHANICAL_92 [J]
Zone,Meter,Cooling:EnergyTransfer:Zone:MECHANICAL_92 [J]
Zone,Meter,General:Cooling:EnergyTransfer:Zone:MECHANICAL_92 [J]
Zone,Meter,EnergyTransfer:Zone:OFFICE_PRIVATE_92 [J]
Zone,Meter,Heating:EnergyTransfer:Zone:OFFICE_PRIVATE_92 [J]
Zone,Meter,General:Heating:EnergyTransfer:Zone:OFFICE_PRIVATE_92 [J]
Zone,Meter,Cooling:EnergyTransfer:Zone:OFFICE_PRIVATE_92 [J]
Zone,Meter,General:Cooling:EnergyTransfer:Zone:OFFICE_PRIVATE_92 [J]
Zone,Meter,EnergyTransfer:Zone:OFFICE_PRIVATE_93 [J]
Zone,Meter,Heating:EnergyTransfer:Zone:OFFICE_PRIVATE_93 [J]
Zone,Meter,General:Heating:EnergyTransfer:Zone:OFFICE_PRIVATE_93 [J]
Zone,Meter,Cooling:EnergyTransfer:Zone:OFFICE_PRIVATE_93 [J]
Zone,Meter,General:Cooling:EnergyTransfer:Zone:OFFICE_PRIVATE_93 [J]
Zone,Meter,EnergyTransfer:Zone:STORAGE_93 [J]
Zone,Meter,Heating:EnergyTransfer:Zone:STORAGE_93 [J]
Zone,Meter,General:Heating:EnergyTransfer:Zone:STORAGE_93 [J]
Zone,Meter,Cooling:EnergyTransfer:Zone:STORAGE_93 [J]
Zone,Meter,General:Cooling:EnergyTransfer:Zone:STORAGE_93 [J]
Zone,Meter,EnergyTransfer:Zone:CONFERENCE_94 [J]
Zone,Meter,Heating:EnergyTransfer:Zone:CONFERENCE_94 [J]
Zone,Meter,General:Heating:EnergyTransfer:Zone:CONFERENCE_94 [J]
Zone,Meter,Cooling:EnergyTransfer:Zone:CONFERENCE_94 [J]
Zone,Meter,General:Cooling:EnergyTransfer:Zone:CONFERENCE_94 [J]
Zone,Meter,EnergyTransfer:Zone:BREAK_ROOM_94 [J]
Zone,Meter,Heating:EnergyTransfer:Zone:BREAK_ROOM_94 [J]
Zone,Meter,General:Heating:EnergyTransfer:Zone:BREAK_ROOM_94 [J]
Zone,Meter,Cooling:EnergyTransfer:Zone:BREAK_ROOM_94 [J]
Zone,Meter,General:Cooling:EnergyTransfer:Zone:BREAK_ROOM_94 [J]
Zone,Meter,EnergyTransfer:Zone:MECHANICAL_94 [J]
Zone,Meter,Heating:EnergyTransfer:Zone:MECHANICAL_94 [J]
Zone,Meter,General:Heating:EnergyTransfer:Zone:MECHANICAL_94 [J]
Zone,Meter,Cooling:EnergyTransfer:Zone:MECHANICAL_94 [J]
Zone,Meter,General:Cooling:EnergyTransfer:Zone:MECHANICAL_94 [J]
Zone,Meter,EnergyTransfer:Zone:OFFICE_PRIVATE_94 [J]
Zone,Meter,Heating:EnergyTransfer:Zone:OFFICE_PRIVATE_94 [J]
Zone,Meter,General:Heating:EnergyTransfer:Zone:OFFICE_PRIVATE_94 [J]
Zone,Meter,Cooling:EnergyTransfer:Zone:OFFICE_PRIVATE_94 [J]
Zone,Meter,General:Cooling:EnergyTransfer:Zone:OFFICE_PRIVATE_94 [J]
Zone,Meter,EnergyTransfer:Zone:STORAGE_94 [J]
Zone,Meter,Heating:EnergyTransfer:Zone:STORAGE_94 [J]
Zone,Meter,General:Heating:EnergyTransfer:Zone:STORAGE_94 [J]
Zone,Meter,Cooling:EnergyTransfer:Zone:STORAGE_94 [J]
Zone,Meter,General:Cooling:EnergyTransfer:Zone:STORAGE_94 [J]
Zone,Meter,EnergyTransfer:Zone:MECHANICAL_95 [J]
Zone,Meter,Heating:EnergyTransfer:Zone:MECHANICAL_95 [J]
Zone,Meter,General:Heating:EnergyTransfer:Zone:MECHANICAL_95 [J]
Zone,Meter,Cooling:EnergyTransfer:Zone:MECHANICAL_95 [J]
Zone,Meter,General:Cooling:EnergyTransfer:Zone:MECHANICAL_95 [J]
Zone,Meter,EnergyTransfer:Zone:OFFICE_PRIVATE_95 [J]
Zone,Meter,Heating:EnergyTransfer:Zone:OFFICE_PRIVATE_95 [J]
Zone,Meter,General:Heating:EnergyTransfer:Zone:OFFICE_PRIVATE_95 [J]
Zone,Meter,Cooling:EnergyTransfer:Zone:OFFICE_PRIVATE_95 [J]
Zone,Meter,General:Cooling:EnergyTransfer:Zone:OFFICE_PRIVATE_95 [J]
Zone,Meter,EnergyTransfer:Zone:OFFICE_PRIVATE_96 [J]
Zone,Meter,Heating:EnergyTransfer:Zone:OFFICE_PRIVATE_96 [J]
Zone,Meter,General:Heating:EnergyTransfer:Zone:OFFICE_PRIVATE_96 [J]
Zone,Meter,Cooling:EnergyTransfer:Zone:OFFICE_PRIVATE_96 [J]
Zone,Meter,General:Cooling:EnergyTransfer:Zone:OFFICE_PRIVATE_96 [J]
Zone,Meter,EnergyTransfer:Zone:STORAGE_96 [J]
Zone,Meter,Heating:EnergyTransfer:Zone:STORAGE_96 [J]
Zone,Meter,General:Heating:EnergyTransfer:Zone:STORAGE_96 [J]
Zone,Meter,Cooling:EnergyTransfer:Zone:STORAGE_96 [J]
Zone,Meter,General:Cooling:EnergyTransfer:Zone:STORAGE_96 [J]
Zone,Meter,EnergyTransfer:Zone:CONFERENCE_97 [J]
Zone,Meter,Heating:EnergyTransfer:Zone:CONFERENCE_97 [J]
Zone,Meter,General:Heating:EnergyTransfer:Zone:CONFERENCE_97 [J]
Zone,Meter,Cooling:EnergyTransfer:Zone:CONFERENCE_97 [J]
Zone,Meter,General:Cooling:EnergyTransfer:Zone:CONFERENCE_97 [J]
Zone,Meter,EnergyTransfer:Zone:BREAK_ROOM_97 [J]
Zone,Meter,Heating:EnergyTransfer:Zone:BREAK_ROOM_97 [J]
Zone,Meter,General:Heating:EnergyTransfer:Zone:BREAK_ROOM_97 [J]
Zone,Meter,Cooling:EnergyTransfer:Zone:BREAK_ROOM_97 [J]
Zone,Meter,General:Cooling:EnergyTransfer:Zone:BREAK_ROOM_97 [J]
Zone,Meter,EnergyTransfer:Zone:MECHANICAL_97 [J]
Zone,Meter,Heating:EnergyTransfer:Zone:MECHANICAL_97 [J]
Zone,Meter,General:Heating:EnergyTransfer:Zone:MECHANICAL_97 [J]
Zone,Meter,Cooling:EnergyTransfer:Zone:MECHANICAL_97 [J]
Zone,Meter,General:Cooling:EnergyTransfer:Zone:MECHANICAL_97 [J]
Zone,Meter,EnergyTransfer:Zone:STORAGE_97 [J]
Zone,Meter,Heating:EnergyTransfer:Zone:STORAGE_97 [J]
Zone,Meter,General:Heating:EnergyTransfer:Zone:STORAGE_97 [J]
Zone,Meter,Cooling:EnergyTransfer:Zone:STORAGE_97 [J]
Zone,Meter,General:Cooling:EnergyTransfer:Zone:STORAGE_97 [J]
Zone,Meter,EnergyTransfer:Zone:BREAK_ROOM_98 [J]
Zone,Meter,Heating:EnergyTransfer:Zone:BREAK_ROOM_98 [J]
Zone,Meter,General:Heating:EnergyTransfer:Zone:BREAK_ROOM_98 [J]
Zone,Meter,Cooling:EnergyTransfer:Zone:BREAK_ROOM_98 [J]
Zone,Meter,General:Cooling:EnergyTransfer:Zone:BREAK_ROOM_98 [J]
Zone,Meter,EnergyTransfer:Zone:STORAGE_98 [J]
Zone,Meter,Heating:EnergyTransfer:Zone:STORAGE_98 [J]
Zone,Meter,General:Heating:EnergyTransfer:Zone:STORAGE_98 [J]
Zone,Meter,Cooling:EnergyTransfer:Zone:STORAGE_98 [J]
Zone,Meter,General:Cooling:EnergyTransfer:Zone:STORAGE_98 [J]
Zone,Meter,EnergyTransfer:Zone:BREAK_ROOM_99 [J]
Zone,Meter,Heating:EnergyTransfer:Zone:BREAK_ROOM_99 [J]
Zone,Meter,General:Heating:EnergyTransfer:Zone:BREAK_ROOM_99 [J]
Zone,Meter,Cooling:EnergyTransfer:Zone:BREAK_ROOM_99 [J]
Zone,Meter,General:Cooling:EnergyTransfer:Zone:BREAK_ROOM_99 [J]
Zone,Meter,EnergyTransfer:Zone:OFFICE_PRIVATE_99 [J]
Zone,Meter,Heating:EnergyTransfer:Zone:OFFICE_PRIVATE_99 [J]
Zone,Meter,General:Heating:EnergyTransfer:Zone:OFFICE_PRIVATE_99 [J]
Zone,Meter,Cooling:EnergyTransfer:Zone:OFFICE_PRIVATE_99 [J]
Zone,Meter,General:Cooling:EnergyTransfer:Zone:OFFICE_PRIVATE_99 [J]
Zone,Meter,EnergyTransfer:Zone:STORAGE_99 [J]
Zone,Meter,Heating:EnergyTransfer:Zone:STORAGE_99 [J]
Zone,Meter,General:Heating:EnergyTransfer:Zone:STORAGE_99 [J]
Zone,Meter,Cooling:EnergyTransfer:Zone:STORAGE_99 [J]
Zone,Meter,General:Cooling:EnergyTransfer:Zone:STORAGE_99 [J]
Zone,Meter,EnergyTransfer:HVAC [J]
Zone,Meter,HeatingCoils:EnergyTransfer [J]
Zone,Meter,Electricity:HVAC [J]
Zone,Meter,Heating:Electricity [J]
Zone,Meter,General:Heating:Electricity [J]
Zone,Meter,Fans:Electricity [J]
Zone,Meter,General:Fans:Electricity [J]
Zone,Meter,CoolingCoils:EnergyTransfer [J]
Zone,Meter,Cooling:Electricity [J]
Zone,Meter,General:Cooling:Electricity [J]
Zone,Meter,ElectricityPurchased:Facility [J]
Zone,Meter,ElectricityPurchased:Plant [J]
Zone,Meter,Cogeneration:ElectricityPurchased [J]
Zone,Meter,General:Cogeneration:ElectricityPurchased [J]
Zone,Meter,ElectricitySurplusSold:Facility [J]
Zone,Meter,ElectricitySurplusSold:Plant [J]
Zone,Meter,Cogeneration:ElectricitySurplusSold [J]
Zone,Meter,General:Cogeneration:ElectricitySurplusSold [J]
Zone,Meter,ElectricityNet:Facility [J]
Zone,Meter,ElectricityNet:Plant [J]
Zone,Meter,Cogeneration:ElectricityNet [J]
Zone,Meter,General:Cogeneration:ElectricityNet [J]
Zone,Meter,Carbon Equivalent:Facility [kg]
Zone,Meter,CarbonEquivalentEmissions:Carbon Equivalent [kg]
