Program Version,EnergyPlus, Version 24.2.0-94a887817b, YMD=2025.10.31 22:39
! <Version>, Version ID
 Version, 24.2.0
! <Timesteps per Hour>, #TimeSteps, Minutes per TimeStep {minutes}
 Timesteps per Hour,  4, 15
! <System Convergence Limits>, Minimum System TimeStep {minutes}, Max HVAC Iterations, Minimum Plant Iterations, Maximum Plant Iterations
 System Convergence Limits, 1, 20, 2, 8
! <Simulation Control>, Do Zone Sizing, Do System Sizing, Do Plant Sizing, Do Design Days, Do Weather Simulation, Do HVAC Sizing Simulation
 Simulation Control, No, No, No, No, Yes, No
! <Performance Precision Tradeoffs>, Use Coil Direct Simulation, Zone Radiant Exchange Algorithm, Override Mode, Number of Timestep In Hour, Force Euler Method, Minimum Number of Warmup Days, Force Suppress All Begin Environment Resets, Minimum System Timestep, MaxZoneTempDiff, MaxAllowedDelTemp
 Performance Precision Tradeoffs, No, ScriptF, Normal, 4, No, 1, No, 1.0, 0.300, 2.0000E-003
! <Output Reporting Tolerances>, Tolerance for Time Heating Setpoint Not Met, Tolerance for Zone Cooling Setpoint Not Met Time
 Output Reporting Tolerances, 0.200, 0.200, 
! <Site:GroundTemperature:BuildingSurface>,Jan{C},Feb{C},Mar{C},Apr{C},May{C},Jun{C},Jul{C},Aug{C},Sep{C},Oct{C},Nov{C},Dec{C}
 Site:GroundTemperature:BuildingSurface,  20.00,  20.00,  20.00,  20.00,  20.00,  20.00,  20.00,  20.00,  20.00,  20.00,  20.00,  20.00
! <Site:GroundTemperature:FCfactorMethod>,Jan{C},Feb{C},Mar{C},Apr{C},May{C},Jun{C},Jul{C},Aug{C},Sep{C},Oct{C},Nov{C},Dec{C}
 Site:GroundTemperature:FCfactorMethod,  -1.89,  -3.06,  -0.99,   2.23,  10.68,  17.20,  21.60,  22.94,  20.66,  15.60,   8.83,   2.56
! <Site:GroundTemperature:Shallow>,Jan{C},Feb{C},Mar{C},Apr{C},May{C},Jun{C},Jul{C},Aug{C},Sep{C},Oct{C},Nov{C},Dec{C}
 Site:GroundTemperature:Shallow,  13.00,  13.00,  13.00,  13.00,  13.00,  13.00,  13.00,  13.00,  13.00,  13.00,  13.00,  13.00
! <Site:GroundTemperature:Deep>,Jan{C},Feb{C},Mar{C},Apr{C},May{C},Jun{C},Jul{C},Aug{C},Sep{C},Oct{C},Nov{C},Dec{C}
 Site:GroundTemperature:Deep,  16.00,  16.00,  16.00,  16.00,  16.00,  16.00,  16.00,  16.00,  16.00,  16.00,  16.00,  16.00
! <Site:GroundReflectance>,Jan{dimensionless},Feb{dimensionless},Mar{dimensionless},Apr{dimensionless},May{dimensionless},Jun{dimensionless},Jul{dimensionless},Aug{dimensionless},Sep{dimensionless},Oct{dimensionless},Nov{dimensionless},Dec{dimensionless}
 Site:GroundReflectance,  0.20,  0.20,  0.20,  0.20,  0.20,  0.20,  0.20,  0.20,  0.20,  0.20,  0.20,  0.20
! <Site:GroundReflectance:SnowModifier>, Normal, Daylighting {dimensionless}
 Site:GroundReflectance:SnowModifier,   1.000,   1.000
! <Site:GroundReflectance:Snow>,Jan{dimensionless},Feb{dimensionless},Mar{dimensionless},Apr{dimensionless},May{dimensionless},Jun{dimensionless},Jul{dimensionless},Aug{dimensionless},Sep{dimensionless},Oct{dimensionless},Nov{dimensionless},Dec{dimensionless}
 Site:GroundReflectance:Snow,  0.20,  0.20,  0.20,  0.20,  0.20,  0.20,  0.20,  0.20,  0.20,  0.20,  0.20,  0.20
! <Site:GroundReflectance:Snow:Daylighting>,Jan{dimensionless},Feb{dimensionless},Mar{dimensionless},Apr{dimensionless},May{dimensionless},Jun{dimensionless},Jul{dimensionless},Aug{dimensionless},Sep{dimensionless},Oct{dimensionless},Nov{dimensionless},Dec{dimensionless}
 Site:GroundReflectance:Snow:Daylighting,  0.20,  0.20,  0.20,  0.20,  0.20,  0.20,  0.20,  0.20,  0.20,  0.20,  0.20,  0.20
! <Environment:Weather Station>,Wind Sensor Height Above Ground {m},Wind Speed Profile Exponent {},Wind Speed Profile Boundary Layer Thickness {m},Air Temperature Sensor Height Above Ground {m},Wind Speed Modifier Coefficient-Internal,Temperature Modifier Coefficient-Internal
Environment:Weather Station,10.000,0.140,270.000,1.500,1.586,9.750E-003
! <Site:Location>, Location Name, Latitude {N+/S- Deg}, Longitude {E+/W- Deg},  Time Zone Number {GMT+/-}, Elevation {m},  Standard Pressure at Elevation {Pa}, Standard RhoAir at Elevation
Site:Location,Chicago Ohare Intl Ap IL USA TMY3 WMO#=725300,41.98,-87.92,-6.00,201.00,98934,1.1759
! <Site Water Mains Temperature Information>,Calculation Method{},Water Mains Temperature Schedule Name{},Annual Average Outdoor Air Temperature{C},Maximum Difference In Monthly Average Outdoor Air Temperatures{deltaC},Fixed Default Water Mains Temperature{C}
Site Water Mains Temperature Information,FixedDefault,NA,NA,NA,10.0
! <Building Information>, Building Name,North Axis {deg},Terrain,  Loads Convergence Tolerance Value,Temperature Convergence Tolerance Value,  Solar Distribution,Maximum Number of Warmup Days,Minimum Number of Warmup Days
 Building Information,Professional Building,0.000,Suburbs,4.00000E-002,0.20000,FullInteriorAndExterior,15,6
! <Inside Convection Algorithm>, Algorithm {Simple | TARP | CeilingDiffuser | AdaptiveConvectionAlgorithm}
Inside Convection Algorithm,TARP
! <Outside Convection Algorithm>, Algorithm {SimpleCombined | TARP | MoWitt | DOE-2 | AdaptiveConvectionAlgorithm}
Outside Convection Algorithm,DOE-2
! <Sky Radiance Distribution>, Value {Anisotropic}
Sky Radiance Distribution,Anisotropic
! <Zone Air Solution Algorithm>, Algorithm {ThirdOrderBackwardDifference | AnalyticalSolution | EulerMethod}, Space Heat Balance Sizing, Space Heat Balance Simulation
 Zone Air Solution Algorithm, ThirdOrderBackwardDifference, No, No
! <Zone Air Carbon Dioxide Balance Simulation>, Simulation {Yes/No}, Carbon Dioxide Concentration
 Zone Air Carbon Dioxide Balance Simulation, No,N/A
! <Zone Air Generic Contaminant Balance Simulation>, Simulation {Yes/No}, Generic Contaminant Concentration
 Zone Air Generic Contaminant Balance Simulation, No,N/A
! <Zone Air Mass Flow Balance Simulation>, Enforce Mass Balance, Adjust Zone Mixing and Return {AdjustMixingOnly | AdjustReturnOnly | AdjustMixingThenReturn | AdjustReturnThenMixing | None}, Adjust Zone Infiltration {AddInfiltration | AdjustInfiltration | None}, Infiltration Zones {MixingSourceZonesOnly | AllZones}
 Zone Air Mass Flow Balance Simulation, No,N/A,N/A,N/A
! <HVACSystemRootFindingAlgorithm>, Value {RegulaFalsi | Bisection | BisectionThenRegulaFalsi | RegulaFalsiThenBisection}
 HVACSystemRootFindingAlgorithm, RegulaFalsi
! <Environment:Site Atmospheric Variation>,Wind Speed Profile Exponent {},Wind Speed Profile Boundary Layer Thickness {m},Air Temperature Gradient Coefficient {K/m}
Environment:Site Atmospheric Variation,0.220,370.000,6.500000E-003
! <Shadowing/Sun Position Calculations Annual Simulations>, Shading Calculation Method, Shading Calculation Update Frequency Method, Shading Calculation Update Frequency {days}, Maximum Figures in Shadow Overlap Calculations {}, Polygon Clipping Algorithm, Pixel Counting Resolution, Sky Diffuse Modeling Algorithm, Output External Shading Calculation Results, Disable Self-Shading Within Shading Zone Groups, Disable Self-Shading From Shading Zone Groups to Other Zones
Shadowing/Sun Position Calculations Annual Simulations,PolygonClipping,Periodic,20,15000,SutherlandHodgman,512,SimpleSkyDiffuseModeling,No,No,No
! <Surface Geometry>,Starting Corner,Vertex Input Direction,Coordinate System,Daylight Reference Point Coordinate System,Rectangular (Simple) Surface Coordinate System
 Surface Geometry,UpperLeftCorner,Counterclockwise,RelativeCoordinateSystem,RelativeCoordinateSystem,RelativeToZoneOrigin
! <Surface Heat Transfer Algorithm>, Value {CTF - ConductionTransferFunction | EMPD - MoisturePenetrationDepthConductionTransferFunction | CondFD - ConductionFiniteDifference | HAMT - CombinedHeatAndMoistureFiniteElement} - Description,Inside Surface Max Temperature Limit{C}, Surface Convection Coefficient Lower Limit {W/m2-K}, Surface Convection Coefficient Upper Limit {W/m2-K}
Surface Heat Transfer Algorithm, CTF - ConductionTransferFunction,200,0.10,1000.0
! <Shading Summary>, Number of Fixed Detached Shades, Number of Building Detached Shades, Number of Attached Shades
 Shading Summary,0,0,0
! <Zone Summary>, Number of Zones, Number of Zone Surfaces, Number of SubSurfaces
 Zone Summary,33,330,132
! <Zone Information>,Zone Name,North Axis {deg},Origin X-Coordinate {m},Origin Y-Coordinate {m},Origin Z-Coordinate {m},Centroid X-Coordinate {m},Centroid Y-Coordinate {m},Centroid Z-Coordinate {m},Type,Zone Multiplier,Zone List Multiplier,Minimum X {m},Maximum X {m},Minimum Y {m},Maximum Y {m},Minimum Z {m},Maximum Z {m},Ceiling Height {m},Volume {m3},Zone Inside Convection Algorithm {Simple-Detailed-CeilingDiffuser-TrombeWall},Zone Outside Convection Algorithm {Simple-Detailed-Tarp-MoWitt-DOE-2-BLAST}, Floor Area {m2},Exterior Gross Wall Area {m2},Exterior Net Wall Area {m2},Exterior Window Area {m2}, Number of Surfaces, Number of SubSurfaces, Number of Shading SubSurfaces,  Part of Total Building Area
 Zone Information, LOBBY_0,0.0,0.00,0.00,0.00,-49.16,-19.58,1.50,1,1,1,-54.45,-43.87,-28.93,-10.23,0.00,3.00,3.00,584.48,TARP,DOE-2,194.83,174.45,113.56,60.89,6,4,0,Yes
 Zone Information, CONFERENCE_0,0.0,0.00,0.00,0.00,-46.73,-88.74,1.50,1,1,1,-49.53,-43.93,-93.04,-84.44,0.00,3.00,3.00,140.28,TARP,DOE-2,46.76,84.00,54.69,29.31,6,4,0,Yes
 Zone Information, BREAK_ROOM_0,0.0,0.00,0.00,0.00,-9.31,-67.38,1.50,1,1,1,-12.40,-6.21,-73.45,-61.31,0.00,3.00,3.00,219.79,TARP,DOE-2,73.26,108.74,70.77,37.97,6,4,0,Yes
 Zone Information, MECHANICAL_0,0.0,0.00,0.00,0.00,-32.51,-73.82,1.50,1,1,1,-35.64,-29.37,-77.47,-70.18,0.00,3.00,3.00,132.82,TARP,DOE-2,44.27,80.08,52.17,27.91,6,4,0,Yes
 Zone Information, OFFICE_OPEN_0,0.0,0.00,0.00,0.00,-14.40,-90.72,1.50,1,1,1,-23.07,-5.72,-103.68,-77.75,0.00,3.00,3.00,1336.78,TARP,DOE-2,445.59,258.49,168.32,90.17,6,4,0,Yes
 Zone Information, OFFICE_PRIVATE_0,0.0,0.00,0.00,0.00,-64.36,-46.82,1.50,1,1,1,-66.68,-62.04,-50.75,-42.89,0.00,3.00,3.00,105.67,TARP,DOE-2,35.22,73.80,48.04,25.76,6,4,0,Yes
 Zone Information, STORAGE_0,0.0,0.00,0.00,0.00,-7.35,-11.42,1.50,1,1,1,-9.30,-5.40,-13.81,-9.04,0.00,3.00,3.00,53.17,TARP,DOE-2,17.72,50.79,33.08,17.71,6,4,0,Yes
 Zone Information, LOBBY_1,0.0,0.00,0.00,0.00,-30.31,-101.13,4.50,1,1,1,-34.49,-26.13,-106.44,-95.82,3.00,6.00,3.00,260.62,TARP,DOE-2,86.87,112.67,73.38,39.28,6,4,0,Yes
 Zone Information, CONFERENCE_1,0.0,0.00,0.00,0.00,-51.38,-42.34,4.50,1,1,1,-55.39,-47.36,-47.54,-37.15,3.00,6.00,3.00,244.53,TARP,DOE-2,81.51,109.26,71.16,38.10,6,4,0,Yes
 Zone Information, BREAK_ROOM_1,0.0,0.00,0.00,0.00,-46.43,-21.94,4.50,1,1,1,-50.43,-42.43,-26.19,-17.69,3.00,6.00,3.00,199.21,TARP,DOE-2,66.40,97.83,63.74,34.09,6,4,0,Yes
 Zone Information, MECHANICAL_1,0.0,0.00,0.00,0.00,-73.49,-61.82,4.50,1,1,1,-77.51,-69.46,-67.92,-55.73,3.00,6.00,3.00,288.51,TARP,DOE-2,96.17,120.26,78.30,41.95,6,4,0,Yes
 Zone Information, OFFICE_OPEN_1,0.0,0.00,0.00,0.00,-32.07,-30.35,4.50,1,1,1,-36.77,-27.36,-39.61,-21.10,3.00,6.00,3.00,514.21,TARP,DOE-2,171.40,166.31,108.24,58.07,6,4,0,Yes
 Zone Information, OFFICE_PRIVATE_1,0.0,0.00,0.00,0.00,-71.03,-113.02,4.50,1,1,1,-72.69,-69.37,-115.76,-110.28,3.00,6.00,3.00,51.94,TARP,DOE-2,17.31,51.60,33.59,18.01,6,4,0,Yes
 Zone Information, STORAGE_1,0.0,0.00,0.00,0.00,-45.79,-46.11,4.50,1,1,1,-48.42,-43.16,-49.42,-42.80,3.00,6.00,3.00,100.93,TARP,DOE-2,33.64,70.08,45.65,24.43,6,4,0,Yes
 Zone Information, LOBBY_2,0.0,0.00,0.00,0.00,-22.19,-39.19,7.50,1,1,1,-25.86,-18.53,-46.24,-32.14,6.00,9.00,3.00,303.76,TARP,DOE-2,101.25,127.40,82.92,44.48,6,4,0,Yes
 Zone Information, CONFERENCE_2,0.0,0.00,0.00,0.00,-37.11,-106.09,7.50,1,1,1,-39.33,-34.89,-109.67,-102.51,6.00,9.00,3.00,92.00,TARP,DOE-2,30.67,68.42,44.54,23.87,6,4,0,Yes
 Zone Information, BREAK_ROOM_2,0.0,0.00,0.00,0.00,-63.98,-91.14,7.50,1,1,1,-67.18,-60.78,-96.70,-85.58,6.00,9.00,3.00,208.40,TARP,DOE-2,69.47,103.95,67.67,36.28,6,4,0,Yes
 Zone Information, MECHANICAL_2,0.0,0.00,0.00,0.00,-40.70,-81.15,7.50,1,1,1,-43.88,-37.53,-86.58,-75.72,6.00,9.00,3.00,201.95,TARP,DOE-2,67.32,102.10,66.46,35.63,6,4,0,Yes
 Zone Information, OFFICE_OPEN_2,0.0,0.00,0.00,0.00,-78.65,-82.74,7.50,1,1,1,-88.24,-69.06,-94.78,-70.69,6.00,9.00,3.00,1373.36,TARP,DOE-2,457.79,258.44,168.33,90.10,6,4,0,Yes
 Zone Information, OFFICE_PRIVATE_2,0.0,0.00,0.00,0.00,-21.96,-92.03,7.50,1,1,1,-24.08,-19.85,-94.35,-89.72,6.00,9.00,3.00,56.03,TARP,DOE-2,18.68,51.92,33.82,18.09,6,4,0,Yes
 Zone Information, STORAGE_2,0.0,0.00,0.00,0.00,-62.27,-77.92,7.50,1,1,1,-64.80,-59.73,-82.29,-73.54,6.00,9.00,3.00,129.16,TARP,DOE-2,43.05,81.77,53.23,28.54,6,4,0,Yes
 Zone Information, CONFERENCE_3,0.0,0.00,0.00,0.00,-42.36,-98.80,10.50,1,1,1,-45.95,-38.76,-104.89,-92.72,9.00,12.00,3.00,256.83,TARP,DOE-2,85.61,114.99,74.86,40.13,6,4,0,Yes
 Zone Information, BREAK_ROOM_3,0.0,0.00,0.00,0.00,-76.81,-8.18,10.50,1,1,1,-80.16,-73.46,-13.55,-2.82,9.00,12.00,3.00,210.56,TARP,DOE-2,70.19,103.41,67.33,36.08,6,4,0,Yes
 Zone Information, MECHANICAL_3,0.0,0.00,0.00,0.00,-29.77,-6.79,10.50,1,1,1,-34.76,-24.79,-11.80,-1.79,9.00,12.00,3.00,293.29,TARP,DOE-2,97.76,118.65,77.32,41.34,6,4,0,Yes
 Zone Information, OFFICE_OPEN_3,0.0,0.00,0.00,0.00,-20.31,-49.73,10.50,1,1,1,-26.32,-14.30,-57.85,-41.62,9.00,12.00,3.00,576.71,TARP,DOE-2,192.24,168.29,109.60,58.69,6,4,0,Yes
 Zone Information, STORAGE_3,0.0,0.00,0.00,0.00,-24.02,-35.28,10.50,1,1,1,-26.64,-21.41,-38.45,-32.12,9.00,12.00,3.00,95.77,TARP,DOE-2,31.92,68.13,44.38,23.75,6,4,0,Yes
 Zone Information, LOBBY_4,0.0,0.00,0.00,0.00,-34.78,-90.63,13.50,1,1,1,-40.25,-29.31,-98.92,-82.34,12.00,15.00,3.00,535.96,TARP,DOE-2,178.65,163.92,106.73,57.19,6,4,0,Yes
 Zone Information, CONFERENCE_4,0.0,0.00,0.00,0.00,-20.33,-102.21,13.50,1,1,1,-23.69,-16.97,-107.04,-97.38,12.00,15.00,3.00,189.91,TARP,DOE-2,63.30,97.08,63.22,33.86,6,4,0,Yes
 Zone Information, BREAK_ROOM_4,0.0,0.00,0.00,0.00,-42.90,-73.74,13.50,1,1,1,-45.15,-40.66,-78.14,-69.35,12.00,15.00,3.00,114.59,TARP,DOE-2,38.20,78.53,51.11,27.42,6,4,0,Yes
 Zone Information, MECHANICAL_4,0.0,0.00,0.00,0.00,-71.81,-50.95,13.50,1,1,1,-73.92,-69.70,-53.96,-47.95,12.00,15.00,3.00,73.13,TARP,DOE-2,24.38,60.22,39.21,21.00,6,4,0,Yes
 Zone Information, OFFICE_OPEN_4,0.0,0.00,0.00,0.00,-35.88,-23.48,13.50,1,1,1,-43.41,-28.35,-34.28,-12.69,12.00,15.00,3.00,964.24,TARP,DOE-2,321.41,218.66,142.39,76.27,6,4,0,Yes
 Zone Information, OFFICE_PRIVATE_4,0.0,0.00,0.00,0.00,-46.66,-52.13,13.50,1,1,1,-48.84,-44.48,-56.40,-47.86,12.00,15.00,3.00,107.90,TARP,DOE-2,35.97,76.22,49.61,26.61,6,4,0,Yes
 Zone Information, STORAGE_4,0.0,0.00,0.00,0.00,-12.11,-106.95,13.50,1,1,1,-14.66,-9.56,-110.29,-103.62,12.00,15.00,3.00,98.49,TARP,DOE-2,32.83,69.40,45.20,24.20,6,4,0,Yes
! <Zone Internal Gains Nominal>,Zone Name, Floor Area {m2},# Occupants,Area per Occupant {m2/person},Occupant per Area {person/m2},Interior Lighting {W/m2},Electric Load {W/m2},Gas Load {W/m2},Other Load {W/m2},Hot Water Eq {W/m2},Steam Equipment {W/m2},Sum Loads per Area {W/m2},Outdoor Controlled Baseboard Heat
 Zone Internal Gains Nominal, LOBBY_0,194.83,9.0,21.648,4.619E-002,12.900,3.200,0.000,0.000,0.000,0.000,16.100,No
 Zone Internal Gains Nominal, CONFERENCE_0,46.76,9.0,5.196,0.192,10.800,8.100,0.000,0.000,0.000,0.000,18.900,No
 Zone Internal Gains Nominal, BREAK_ROOM_0,73.26,7.0,10.466,9.554E-002,8.100,15.000,0.000,0.000,0.000,0.000,23.100,No
 Zone Internal Gains Nominal, MECHANICAL_0,44.27,1.0,44.272,2.259E-002,5.400,0.000,0.000,0.000,0.000,0.000,5.400,No
 Zone Internal Gains Nominal, OFFICE_OPEN_0,445.59,22.0,20.254,4.937E-002,10.800,8.100,0.000,0.000,0.000,0.000,18.900,No
 Zone Internal Gains Nominal, OFFICE_PRIVATE_0,35.22,1.0,35.224,2.839E-002,10.800,8.100,0.000,0.000,0.000,0.000,18.900,No
 Zone Internal Gains Nominal, STORAGE_0,17.72,1.0,17.723,5.642E-002,5.400,1.100,0.000,0.000,0.000,0.000,6.500,No
 Zone Internal Gains Nominal, LOBBY_1,86.87,4.0,21.718,4.604E-002,12.900,3.200,0.000,0.000,0.000,0.000,16.100,No
 Zone Internal Gains Nominal, CONFERENCE_1,81.51,16.0,5.094,0.196,10.800,8.100,0.000,0.000,0.000,0.000,18.900,No
 Zone Internal Gains Nominal, BREAK_ROOM_1,66.40,6.0,11.067,9.036E-002,8.100,15.000,0.000,0.000,0.000,0.000,23.100,No
 Zone Internal Gains Nominal, MECHANICAL_1,96.17,1.0,96.169,1.040E-002,5.400,0.000,0.000,0.000,0.000,0.000,5.400,No
 Zone Internal Gains Nominal, OFFICE_OPEN_1,171.40,8.0,21.426,4.667E-002,10.800,8.100,0.000,0.000,0.000,0.000,18.900,No
 Zone Internal Gains Nominal, OFFICE_PRIVATE_1,17.31,1.0,17.313,5.776E-002,10.800,8.100,0.000,0.000,0.000,0.000,18.900,No
 Zone Internal Gains Nominal, STORAGE_1,33.64,1.0,33.643,2.972E-002,5.400,1.100,0.000,0.000,0.000,0.000,6.500,No
 Zone Internal Gains Nominal, LOBBY_2,101.25,5.0,20.250,4.938E-002,12.900,3.200,0.000,0.000,0.000,0.000,16.100,No
 Zone Internal Gains Nominal, CONFERENCE_2,30.67,6.0,5.111,0.196,10.800,8.100,0.000,0.000,0.000,0.000,18.900,No
 Zone Internal Gains Nominal, BREAK_ROOM_2,69.47,6.0,11.578,8.637E-002,8.100,15.000,0.000,0.000,0.000,0.000,23.100,No
 Zone Internal Gains Nominal, MECHANICAL_2,67.32,1.0,67.317,1.486E-002,5.400,0.000,0.000,0.000,0.000,0.000,5.400,No
 Zone Internal Gains Nominal, OFFICE_OPEN_2,457.79,22.0,20.808,4.806E-002,10.800,8.100,0.000,0.000,0.000,0.000,18.900,No
 Zone Internal Gains Nominal, OFFICE_PRIVATE_2,18.68,1.0,18.676,5.354E-002,10.800,8.100,0.000,0.000,0.000,0.000,18.900,No
 Zone Internal Gains Nominal, STORAGE_2,43.05,1.0,43.053,2.323E-002,5.400,1.100,0.000,0.000,0.000,0.000,6.500,No
 Zone Internal Gains Nominal, CONFERENCE_3,85.61,17.0,5.036,0.199,10.800,8.100,0.000,0.000,0.000,0.000,18.900,No
 Zone Internal Gains Nominal, BREAK_ROOM_3,70.19,7.0,10.027,9.973E-002,8.100,15.000,0.000,0.000,0.000,0.000,23.100,No
 Zone Internal Gains Nominal, MECHANICAL_3,97.76,1.0,97.764,1.023E-002,5.400,0.000,0.000,0.000,0.000,0.000,5.400,No
 Zone Internal Gains Nominal, OFFICE_OPEN_3,192.24,9.0,21.360,4.682E-002,10.800,8.100,0.000,0.000,0.000,0.000,18.900,No
 Zone Internal Gains Nominal, STORAGE_3,31.92,1.0,31.922,3.133E-002,5.400,1.100,0.000,0.000,0.000,0.000,6.500,No
 Zone Internal Gains Nominal, LOBBY_4,178.65,8.0,22.332,4.478E-002,12.900,3.200,0.000,0.000,0.000,0.000,16.100,No
 Zone Internal Gains Nominal, CONFERENCE_4,63.30,12.0,5.275,0.190,10.800,8.100,0.000,0.000,0.000,0.000,18.900,No
 Zone Internal Gains Nominal, BREAK_ROOM_4,38.20,3.0,12.732,7.854E-002,8.100,15.000,0.000,0.000,0.000,0.000,23.100,No
 Zone Internal Gains Nominal, MECHANICAL_4,24.38,1.0,24.377,4.102E-002,5.400,0.000,0.000,0.000,0.000,0.000,5.400,No
 Zone Internal Gains Nominal, OFFICE_OPEN_4,321.41,16.0,20.088,4.978E-002,10.800,8.100,0.000,0.000,0.000,0.000,18.900,No
 Zone Internal Gains Nominal, OFFICE_PRIVATE_4,35.97,1.0,35.967,2.780E-002,10.800,8.100,0.000,0.000,0.000,0.000,18.900,No
 Zone Internal Gains Nominal, STORAGE_4,32.83,1.0,32.830,3.046E-002,5.400,1.100,0.000,0.000,0.000,0.000,6.500,No
! <People Internal Gains Nominal>,Name,Schedule Name,Zone Name,Zone Floor Area {m2},# Zone Occupants,Number of People {},People/Floor Area {person/m2},Floor Area per person {m2/person},Fraction Radiant,Fraction Convected,Sensible Fraction Calculation,Activity level,ASHRAE 55 Warnings,Carbon Dioxide Generation Rate,Minimum Number of People for All Day Types,Maximum Number of People for All Day Types,Minimum Number of People for Weekdays, Maximum Number of People for Weekdays, Minimum Number of People for Weekends/Holidays, Maximum Number of People for Weekends /Holidays,Minimum Number of People for Summer Design Days, Maximum Number of People for Summer Design Days,Minimum Number of People for Winter Design Days, Maximum Number of People for Winter Design Days
 People Internal Gains Nominal, LOBBY_0_PEOPLE,LOBBY_OCCUPANCY,LOBBY_0,194.83,9.0,9.0,4.619E-002,21.648,0.300,0.700,0.100,LOBBY_ACTIVITY,No,3.8200E-008,7.2,7.2,7.2,7.2,7.2,7.2,7.2,7.2,7.2,7.2,
 People Internal Gains Nominal, CONFERENCE_0_PEOPLE,CONFERENCE_OCCUPANCY,CONFERENCE_0,46.76,9.0,9.0,0.192,5.196,0.300,0.700,0.100,CONFERENCE_ACTIVITY,No,3.8200E-008,7.2,7.2,7.2,7.2,7.2,7.2,7.2,7.2,7.2,7.2,
 People Internal Gains Nominal, BREAK_ROOM_0_PEOPLE,BREAK_ROOM_OCCUPANCY,BREAK_ROOM_0,73.26,7.0,7.0,9.554E-002,10.466,0.300,0.700,0.100,BREAK_ROOM_ACTIVITY,No,3.8200E-008,5.6,5.6,5.6,5.6,5.6,5.6,5.6,5.6,5.6,5.6,
 People Internal Gains Nominal, MECHANICAL_0_PEOPLE,MECHANICAL_OCCUPANCY,MECHANICAL_0,44.27,1.0,1.0,2.259E-002,44.272,0.300,0.700,0.100,MECHANICAL_ACTIVITY,No,3.8200E-008,0.8,0.8,0.8,0.8,0.8,0.8,0.8,0.8,0.8,0.8,
 People Internal Gains Nominal, OFFICE_OPEN_0_PEOPLE,OFFICE_OPEN_OCCUPANCY,OFFICE_OPEN_0,445.59,22.0,22.0,4.937E-002,20.254,0.300,0.700,0.100,OFFICE_OPEN_ACTIVITY,No,3.8200E-008,17.6,17.6,17.6,17.6,17.6,17.6,17.6,17.6,17.6,17.6,
 People Internal Gains Nominal, OFFICE_PRIVATE_0_PEOPLE,OFFICE_OPEN_OCCUPANCY,OFFICE_PRIVATE_0,35.22,1.0,1.0,2.839E-002,35.224,0.300,0.700,0.100,OFFICE_OPEN_ACTIVITY,No,3.8200E-008,0.8,0.8,0.8,0.8,0.8,0.8,0.8,0.8,0.8,0.8,
 People Internal Gains Nominal, STORAGE_0_PEOPLE,STORAGE_OCCUPANCY,STORAGE_0,17.72,1.0,1.0,5.642E-002,17.723,0.300,0.700,0.100,STORAGE_ACTIVITY,No,3.8200E-008,0.8,0.8,0.8,0.8,0.8,0.8,0.8,0.8,0.8,0.8,
 People Internal Gains Nominal, LOBBY_1_PEOPLE,LOBBY_OCCUPANCY,LOBBY_1,86.87,4.0,4.0,4.604E-002,21.718,0.300,0.700,0.100,LOBBY_ACTIVITY,No,3.8200E-008,3.2,3.2,3.2,3.2,3.2,3.2,3.2,3.2,3.2,3.2,
 People Internal Gains Nominal, CONFERENCE_1_PEOPLE,CONFERENCE_OCCUPANCY,CONFERENCE_1,81.51,16.0,16.0,0.196,5.094,0.300,0.700,0.100,CONFERENCE_ACTIVITY,No,3.8200E-008,12.8,12.8,12.8,12.8,12.8,12.8,12.8,12.8,12.8,12.8,
 People Internal Gains Nominal, BREAK_ROOM_1_PEOPLE,BREAK_ROOM_OCCUPANCY,BREAK_ROOM_1,66.40,6.0,6.0,9.036E-002,11.067,0.300,0.700,0.100,BREAK_ROOM_ACTIVITY,No,3.8200E-008,4.8,4.8,4.8,4.8,4.8,4.8,4.8,4.8,4.8,4.8,
 People Internal Gains Nominal, MECHANICAL_1_PEOPLE,MECHANICAL_OCCUPANCY,MECHANICAL_1,96.17,1.0,1.0,1.040E-002,96.169,0.300,0.700,0.100,MECHANICAL_ACTIVITY,No,3.8200E-008,0.8,0.8,0.8,0.8,0.8,0.8,0.8,0.8,0.8,0.8,
 People Internal Gains Nominal, OFFICE_OPEN_1_PEOPLE,OFFICE_OPEN_OCCUPANCY,OFFICE_OPEN_1,171.40,8.0,8.0,4.667E-002,21.426,0.300,0.700,0.100,OFFICE_OPEN_ACTIVITY,No,3.8200E-008,6.4,6.4,6.4,6.4,6.4,6.4,6.4,6.4,6.4,6.4,
 People Internal Gains Nominal, OFFICE_PRIVATE_1_PEOPLE,OFFICE_OPEN_OCCUPANCY,OFFICE_PRIVATE_1,17.31,1.0,1.0,5.776E-002,17.313,0.300,0.700,0.100,OFFICE_OPEN_ACTIVITY,No,3.8200E-008,0.8,0.8,0.8,0.8,0.8,0.8,0.8,0.8,0.8,0.8,
 People Internal Gains Nominal, STORAGE_1_PEOPLE,STORAGE_OCCUPANCY,STORAGE_1,33.64,1.0,1.0,2.972E-002,33.643,0.300,0.700,0.100,STORAGE_ACTIVITY,No,3.8200E-008,0.8,0.8,0.8,0.8,0.8,0.8,0.8,0.8,0.8,0.8,
 People Internal Gains Nominal, LOBBY_2_PEOPLE,LOBBY_OCCUPANCY,LOBBY_2,101.25,5.0,5.0,4.938E-002,20.250,0.300,0.700,0.100,LOBBY_ACTIVITY,No,3.8200E-008,4.0,4.0,4.0,4.0,4.0,4.0,4.0,4.0,4.0,4.0,
 People Internal Gains Nominal, CONFERENCE_2_PEOPLE,CONFERENCE_OCCUPANCY,CONFERENCE_2,30.67,6.0,6.0,0.196,5.111,0.300,0.700,0.100,CONFERENCE_ACTIVITY,No,3.8200E-008,4.8,4.8,4.8,4.8,4.8,4.8,4.8,4.8,4.8,4.8,
 People Internal Gains Nominal, BREAK_ROOM_2_PEOPLE,BREAK_ROOM_OCCUPANCY,BREAK_ROOM_2,69.47,6.0,6.0,8.637E-002,11.578,0.300,0.700,0.100,BREAK_ROOM_ACTIVITY,No,3.8200E-008,4.8,4.8,4.8,4.8,4.8,4.8,4.8,4.8,4.8,4.8,
 People Internal Gains Nominal, MECHANICAL_2_PEOPLE,MECHANICAL_OCCUPANCY,MECHANICAL_2,67.32,1.0,1.0,1.486E-002,67.317,0.300,0.700,0.100,MECHANICAL_ACTIVITY,No,3.8200E-008,0.8,0.8,0.8,0.8,0.8,0.8,0.8,0.8,0.8,0.8,
 People Internal Gains Nominal, OFFICE_OPEN_2_PEOPLE,OFFICE_OPEN_OCCUPANCY,OFFICE_OPEN_2,457.79,22.0,22.0,4.806E-002,20.808,0.300,0.700,0.100,OFFICE_OPEN_ACTIVITY,No,3.8200E-008,17.6,17.6,17.6,17.6,17.6,17.6,17.6,17.6,17.6,17.6,
 People Internal Gains Nominal, OFFICE_PRIVATE_2_PEOPLE,OFFICE_OPEN_OCCUPANCY,OFFICE_PRIVATE_2,18.68,1.0,1.0,5.354E-002,18.676,0.300,0.700,0.100,OFFICE_OPEN_ACTIVITY,No,3.8200E-008,0.8,0.8,0.8,0.8,0.8,0.8,0.8,0.8,0.8,0.8,
 People Internal Gains Nominal, STORAGE_2_PEOPLE,STORAGE_OCCUPANCY,STORAGE_2,43.05,1.0,1.0,2.323E-002,43.053,0.300,0.700,0.100,STORAGE_ACTIVITY,No,3.8200E-008,0.8,0.8,0.8,0.8,0.8,0.8,0.8,0.8,0.8,0.8,
 People Internal Gains Nominal, CONFERENCE_3_PEOPLE,CONFERENCE_OCCUPANCY,CONFERENCE_3,85.61,17.0,17.0,0.199,5.036,0.300,0.700,0.100,CONFERENCE_ACTIVITY,No,3.8200E-008,13.6,13.6,13.6,13.6,13.6,13.6,13.6,13.6,13.6,13.6,
 People Internal Gains Nominal, BREAK_ROOM_3_PEOPLE,BREAK_ROOM_OCCUPANCY,BREAK_ROOM_3,70.19,7.0,7.0,9.973E-002,10.027,0.300,0.700,0.100,BREAK_ROOM_ACTIVITY,No,3.8200E-008,5.6,5.6,5.6,5.6,5.6,5.6,5.6,5.6,5.6,5.6,
 People Internal Gains Nominal, MECHANICAL_3_PEOPLE,MECHANICAL_OCCUPANCY,MECHANICAL_3,97.76,1.0,1.0,1.023E-002,97.764,0.300,0.700,0.100,MECHANICAL_ACTIVITY,No,3.8200E-008,0.8,0.8,0.8,0.8,0.8,0.8,0.8,0.8,0.8,0.8,
 People Internal Gains Nominal, OFFICE_OPEN_3_PEOPLE,OFFICE_OPEN_OCCUPANCY,OFFICE_OPEN_3,192.24,9.0,9.0,4.682E-002,21.360,0.300,0.700,0.100,OFFICE_OPEN_ACTIVITY,No,3.8200E-008,7.2,7.2,7.2,7.2,7.2,7.2,7.2,7.2,7.2,7.2,
 People Internal Gains Nominal, STORAGE_3_PEOPLE,STORAGE_OCCUPANCY,STORAGE_3,31.92,1.0,1.0,3.133E-002,31.922,0.300,0.700,0.100,STORAGE_ACTIVITY,No,3.8200E-008,0.8,0.8,0.8,0.8,0.8,0.8,0.8,0.8,0.8,0.8,
 People Internal Gains Nominal, LOBBY_4_PEOPLE,LOBBY_OCCUPANCY,LOBBY_4,178.65,8.0,8.0,4.478E-002,22.332,0.300,0.700,0.100,LOBBY_ACTIVITY,No,3.8200E-008,6.4,6.4,6.4,6.4,6.4,6.4,6.4,6.4,6.4,6.4,
 People Internal Gains Nominal, CONFERENCE_4_PEOPLE,CONFERENCE_OCCUPANCY,CONFERENCE_4,63.30,12.0,12.0,0.190,5.275,0.300,0.700,0.100,CONFERENCE_ACTIVITY,No,3.8200E-008,9.6,9.6,9.6,9.6,9.6,9.6,9.6,9.6,9.6,9.6,
 People Internal Gains Nominal, BREAK_ROOM_4_PEOPLE,BREAK_ROOM_OCCUPANCY,BREAK_ROOM_4,38.20,3.0,3.0,7.854E-002,12.732,0.300,0.700,0.100,BREAK_ROOM_ACTIVITY,No,3.8200E-008,2.4,2.4,2.4,2.4,2.4,2.4,2.4,2.4,2.4,2.4,
 People Internal Gains Nominal, MECHANICAL_4_PEOPLE,MECHANICAL_OCCUPANCY,MECHANICAL_4,24.38,1.0,1.0,4.102E-002,24.377,0.300,0.700,0.100,MECHANICAL_ACTIVITY,No,3.8200E-008,0.8,0.8,0.8,0.8,0.8,0.8,0.8,0.8,0.8,0.8,
 People Internal Gains Nominal, OFFICE_OPEN_4_PEOPLE,OFFICE_OPEN_OCCUPANCY,OFFICE_OPEN_4,321.41,16.0,16.0,4.978E-002,20.088,0.300,0.700,0.100,OFFICE_OPEN_ACTIVITY,No,3.8200E-008,12.8,12.8,12.8,12.8,12.8,12.8,12.8,12.8,12.8,12.8,
 People Internal Gains Nominal, OFFICE_PRIVATE_4_PEOPLE,OFFICE_OPEN_OCCUPANCY,OFFICE_PRIVATE_4,35.97,1.0,1.0,2.780E-002,35.967,0.300,0.700,0.100,OFFICE_OPEN_ACTIVITY,No,3.8200E-008,0.8,0.8,0.8,0.8,0.8,0.8,0.8,0.8,0.8,0.8,
 People Internal Gains Nominal, STORAGE_4_PEOPLE,STORAGE_OCCUPANCY,STORAGE_4,32.83,1.0,1.0,3.046E-002,32.830,0.300,0.700,0.100,STORAGE_ACTIVITY,No,3.8200E-008,0.8,0.8,0.8,0.8,0.8,0.8,0.8,0.8,0.8,0.8,
! <Lights Internal Gains Nominal>,Name,Schedule Name,Zone Name,Zone Floor Area {m2},# Zone Occupants,Lighting Level {W},Lights/Floor Area {W/m2},Lights per person {W/person},Fraction Return Air,Fraction Radiant,Fraction Short Wave,Fraction Convected,Fraction Replaceable,End-Use, Minimum Lighting Level for All Day Types {W},Maximum Lighting Level for All Day Types {W},Minimum Lighting Level for Weekdays {W}, Maximum Lighting Level for Weekdays {W},Minimum Lighting Level for Weekends/Holidays {W}, Maximum Lighting Level for Weekends /Holidays {W},Minimum Lighting Level for Summer Design Days {W}, Maximum Lighting Level for Summer Design Days {W},Minimum Lighting Level for Winter Design Days {W}, Maximum Lighting Level for Winter Design Days {W}
 Lights Internal Gains Nominal, LOBBY_0_LIGHTS,LOBBY_LIGHTING,LOBBY_0,194.83,9.0,2513.282,12.900,279.254,0.000,0.300,0.200,0.500,1.000,General,2513.282,2513.282,2513.282,2513.3,2513.282,2513.282,2513.282,2513.282,2513.282,2513.282
 Lights Internal Gains Nominal, CONFERENCE_0_LIGHTS,CONFERENCE_LIGHTING,CONFERENCE_0,46.76,9.0,505.022,10.800,56.114,0.000,0.300,0.200,0.500,1.000,General,505.022,505.022,505.022,505.0,505.022,505.022,505.022,505.022,505.022,505.022
 Lights Internal Gains Nominal, BREAK_ROOM_0_LIGHTS,BREAK_ROOM_LIGHTING,BREAK_ROOM_0,73.26,7.0,593.442,8.100,84.777,0.000,0.300,0.200,0.500,1.000,General,593.442,593.442,593.442,593.4,593.442,593.442,593.442,593.442,593.442,593.442
 Lights Internal Gains Nominal, MECHANICAL_0_LIGHTS,MECHANICAL_LIGHTING,MECHANICAL_0,44.27,1.0,239.069,5.400,239.069,0.000,0.300,0.200,0.500,1.000,General,239.069,239.069,239.069,239.1,239.069,239.069,239.069,239.069,239.069,239.069
 Lights Internal Gains Nominal, OFFICE_OPEN_0_LIGHTS,OFFICE_OPEN_LIGHTING,OFFICE_OPEN_0,445.59,22.0,4812.399,10.800,218.745,0.000,0.300,0.200,0.500,1.000,General,4812.399,4812.399,4812.399,4812.4,4812.399,4812.399,4812.399,4812.399,4812.399,4812.399
 Lights Internal Gains Nominal, OFFICE_PRIVATE_0_LIGHTS,OFFICE_OPEN_LIGHTING,OFFICE_PRIVATE_0,35.22,1.0,380.415,10.800,380.415,0.000,0.300,0.200,0.500,1.000,General,380.415,380.415,380.415,380.4,380.415,380.415,380.415,380.415,380.415,380.415
 Lights Internal Gains Nominal, STORAGE_0_LIGHTS,STORAGE_LIGHTING,STORAGE_0,17.72,1.0,95.703,5.400,95.703,0.000,0.300,0.200,0.500,1.000,General,95.703,95.703,95.703,95.7,95.703,95.703,95.703,95.703,95.703,95.703
 Lights Internal Gains Nominal, LOBBY_1_LIGHTS,LOBBY_LIGHTING,LOBBY_1,86.87,4.0,1120.664,12.900,280.166,0.000,0.300,0.200,0.500,1.000,General,1120.664,1120.664,1120.664,1120.7,1120.664,1120.664,1120.664,1120.664,1120.664,1120.664
 Lights Internal Gains Nominal, CONFERENCE_1_LIGHTS,CONFERENCE_LIGHTING,CONFERENCE_1,81.51,16.0,880.315,10.800,55.020,0.000,0.300,0.200,0.500,1.000,General,880.315,880.315,880.315,880.3,880.315,880.315,880.315,880.315,880.315,880.315
 Lights Internal Gains Nominal, BREAK_ROOM_1_LIGHTS,BREAK_ROOM_LIGHTING,BREAK_ROOM_1,66.40,6.0,537.865,8.100,89.644,0.000,0.300,0.200,0.500,1.000,General,537.865,537.865,537.865,537.9,537.865,537.865,537.865,537.865,537.865,537.865
 Lights Internal Gains Nominal, MECHANICAL_1_LIGHTS,MECHANICAL_LIGHTING,MECHANICAL_1,96.17,1.0,519.311,5.400,519.311,0.000,0.300,0.200,0.500,1.000,General,519.311,519.311,519.311,519.3,519.311,519.311,519.311,519.311,519.311,519.311
 Lights Internal Gains Nominal, OFFICE_OPEN_1_LIGHTS,OFFICE_OPEN_LIGHTING,OFFICE_OPEN_1,171.40,8.0,1851.163,10.800,231.395,0.000,0.300,0.200,0.500,1.000,General,1851.163,1851.163,1851.163,1851.2,1851.163,1851.163,1851.163,1851.163,1851.163,1851.163
 Lights Internal Gains Nominal, OFFICE_PRIVATE_1_LIGHTS,OFFICE_OPEN_LIGHTING,OFFICE_PRIVATE_1,17.31,1.0,186.983,10.800,186.983,0.000,0.300,0.200,0.500,1.000,General,186.983,186.983,186.983,187.0,186.983,186.983,186.983,186.983,186.983,186.983
 Lights Internal Gains Nominal, STORAGE_1_LIGHTS,STORAGE_LIGHTING,STORAGE_1,33.64,1.0,181.674,5.400,181.674,0.000,0.300,0.200,0.500,1.000,General,181.674,181.674,181.674,181.7,181.674,181.674,181.674,181.674,181.674,181.674
 Lights Internal Gains Nominal, LOBBY_2_LIGHTS,LOBBY_LIGHTING,LOBBY_2,101.25,5.0,1306.149,12.900,261.230,0.000,0.300,0.200,0.500,1.000,General,1306.149,1306.149,1306.149,1306.1,1306.149,1306.149,1306.149,1306.149,1306.149,1306.149
 Lights Internal Gains Nominal, CONFERENCE_2_LIGHTS,CONFERENCE_LIGHTING,CONFERENCE_2,30.67,6.0,331.208,10.800,55.201,0.000,0.300,0.200,0.500,1.000,General,331.208,331.208,331.208,331.2,331.208,331.208,331.208,331.208,331.208,331.208
 Lights Internal Gains Nominal, BREAK_ROOM_2_LIGHTS,BREAK_ROOM_LIGHTING,BREAK_ROOM_2,69.47,6.0,562.671,8.100,93.778,0.000,0.300,0.200,0.500,1.000,General,562.671,562.671,562.671,562.7,562.671,562.671,562.671,562.671,562.671,562.671
 Lights Internal Gains Nominal, MECHANICAL_2_LIGHTS,MECHANICAL_LIGHTING,MECHANICAL_2,67.32,1.0,363.512,5.400,363.512,0.000,0.300,0.200,0.500,1.000,General,363.512,363.512,363.512,363.5,363.512,363.512,363.512,363.512,363.512,363.512
 Lights Internal Gains Nominal, OFFICE_OPEN_2_LIGHTS,OFFICE_OPEN_LIGHTING,OFFICE_OPEN_2,457.79,22.0,4944.078,10.800,224.731,0.000,0.300,0.200,0.500,1.000,General,4944.078,4944.078,4944.078,4944.1,4944.078,4944.078,4944.078,4944.078,4944.078,4944.078
 Lights Internal Gains Nominal, OFFICE_PRIVATE_2_LIGHTS,OFFICE_OPEN_LIGHTING,OFFICE_PRIVATE_2,18.68,1.0,201.704,10.800,201.704,0.000,0.300,0.200,0.500,1.000,General,201.704,201.704,201.704,201.7,201.704,201.704,201.704,201.704,201.704,201.704
 Lights Internal Gains Nominal, STORAGE_2_LIGHTS,STORAGE_LIGHTING,STORAGE_2,43.05,1.0,232.488,5.400,232.488,0.000,0.300,0.200,0.500,1.000,General,232.488,232.488,232.488,232.5,232.488,232.488,232.488,232.488,232.488,232.488
 Lights Internal Gains Nominal, CONFERENCE_3_LIGHTS,CONFERENCE_LIGHTING,CONFERENCE_3,85.61,17.0,924.590,10.800,54.388,0.000,0.300,0.200,0.500,1.000,General,924.590,924.590,924.590,924.6,924.590,924.590,924.590,924.590,924.590,924.590
 Lights Internal Gains Nominal, BREAK_ROOM_3_LIGHTS,BREAK_ROOM_LIGHTING,BREAK_ROOM_3,70.19,7.0,568.513,8.100,81.216,0.000,0.300,0.200,0.500,1.000,General,568.513,568.513,568.513,568.5,568.513,568.513,568.513,568.513,568.513,568.513
 Lights Internal Gains Nominal, MECHANICAL_3_LIGHTS,MECHANICAL_LIGHTING,MECHANICAL_3,97.76,1.0,527.927,5.400,527.927,0.000,0.300,0.200,0.500,1.000,General,527.927,527.927,527.927,527.9,527.927,527.927,527.927,527.927,527.927,527.927
 Lights Internal Gains Nominal, OFFICE_OPEN_3_LIGHTS,OFFICE_OPEN_LIGHTING,OFFICE_OPEN_3,192.24,9.0,2076.174,10.800,230.686,0.000,0.300,0.200,0.500,1.000,General,2076.174,2076.174,2076.174,2076.2,2076.174,2076.174,2076.174,2076.174,2076.174,2076.174
 Lights Internal Gains Nominal, STORAGE_3_LIGHTS,STORAGE_LIGHTING,STORAGE_3,31.92,1.0,172.378,5.400,172.378,0.000,0.300,0.200,0.500,1.000,General,172.378,172.378,172.378,172.4,172.378,172.378,172.378,172.378,172.378,172.378
 Lights Internal Gains Nominal, LOBBY_4_LIGHTS,LOBBY_LIGHTING,LOBBY_4,178.65,8.0,2304.635,12.900,288.079,0.000,0.300,0.200,0.500,1.000,General,2304.635,2304.635,2304.635,2304.6,2304.635,2304.635,2304.635,2304.635,2304.635,2304.635
 Lights Internal Gains Nominal, CONFERENCE_4_LIGHTS,CONFERENCE_LIGHTING,CONFERENCE_4,63.30,12.0,683.666,10.800,56.972,0.000,0.300,0.200,0.500,1.000,General,683.666,683.666,683.666,683.7,683.666,683.666,683.666,683.666,683.666,683.666
 Lights Internal Gains Nominal, BREAK_ROOM_4_LIGHTS,BREAK_ROOM_LIGHTING,BREAK_ROOM_4,38.20,3.0,309.390,8.100,103.130,0.000,0.300,0.200,0.500,1.000,General,309.390,309.390,309.390,309.4,309.390,309.390,309.390,309.390,309.390,309.390
 Lights Internal Gains Nominal, MECHANICAL_4_LIGHTS,MECHANICAL_LIGHTING,MECHANICAL_4,24.38,1.0,131.636,5.400,131.636,0.000,0.300,0.200,0.500,1.000,General,131.636,131.636,131.636,131.6,131.636,131.636,131.636,131.636,131.636,131.636
 Lights Internal Gains Nominal, OFFICE_OPEN_4_LIGHTS,OFFICE_OPEN_LIGHTING,OFFICE_OPEN_4,321.41,16.0,3471.277,10.800,216.955,0.000,0.300,0.200,0.500,1.000,General,3471.277,3471.277,3471.277,3471.3,3471.277,3471.277,3471.277,3471.277,3471.277,3471.277
 Lights Internal Gains Nominal, OFFICE_PRIVATE_4_LIGHTS,OFFICE_OPEN_LIGHTING,OFFICE_PRIVATE_4,35.97,1.0,388.446,10.800,388.446,0.000,0.300,0.200,0.500,1.000,General,388.446,388.446,388.446,388.4,388.446,388.446,388.446,388.446,388.446,388.446
 Lights Internal Gains Nominal, STORAGE_4_LIGHTS,STORAGE_LIGHTING,STORAGE_4,32.83,1.0,177.284,5.400,177.284,0.000,0.300,0.200,0.500,1.000,General,177.284,177.284,177.284,177.3,177.284,177.284,177.284,177.284,177.284,177.284
! <ElectricEquipment Internal Gains Nominal>,Name,Schedule Name,Zone Name,Zone Floor Area {m2},# Zone Occupants,Equipment Level {W},Equipment/Floor Area {W/m2},Equipment per person {W/person},Fraction Latent,Fraction Radiant,Fraction Lost,Fraction Convected,End-Use SubCategory,Minimum Equipment Level for All Day Types {W},Maximum Equipment Level for All Day Types {W},Minimum Equipment Level for Weekdays {W}, Maximum Equipment Level for Weekdays {W},Minimum Equipment Level for Weekends/Holidays {W}, Maximum Equipment Level for Weekends /Holidays {W},Minimum Equipment Level for Summer Design Days {W}, Maximum Equipment Level for Summer Design Days {W},Minimum Equipment Level for Winter Design Days {W}, Maximum Equipment Level for Winter Design Days {W}
 ElectricEquipment Internal Gains Nominal, LOBBY_0_EQUIPMENT,LOBBY_EQUIPMENT,LOBBY_0,194.83,9.0,623.450,3.200,69.272,0.100,0.200,0.000,0.700,General,436.415,436.415,436.415,436.415,436.415,436.415,436.415,436.415,436.415,436.415
 ElectricEquipment Internal Gains Nominal, CONFERENCE_0_EQUIPMENT,CONFERENCE_EQUIPMENT,CONFERENCE_0,46.76,9.0,378.767,8.100,42.085,0.100,0.200,0.000,0.700,General,265.137,265.137,265.137,265.137,265.137,265.137,265.137,265.137,265.137,265.137
 ElectricEquipment Internal Gains Nominal, BREAK_ROOM_0_EQUIPMENT,BREAK_ROOM_EQUIPMENT,BREAK_ROOM_0,73.26,7.0,1098.967,15.000,156.995,0.100,0.200,0.000,0.700,General,769.277,769.277,769.277,769.277,769.277,769.277,769.277,769.277,769.277,769.277
 ElectricEquipment Internal Gains Nominal, MECHANICAL_0_EQUIPMENT,MECHANICAL_EQUIPMENT,MECHANICAL_0,44.27,1.0,0.000,0.000,0.000,0.100,0.200,0.000,0.700,General,0.000,0.000,0.000,0.000,0.000,0.000,0.000,0.000,0.000,0.000
 ElectricEquipment Internal Gains Nominal, OFFICE_OPEN_0_EQUIPMENT,OFFICE_OPEN_EQUIPMENT,OFFICE_OPEN_0,445.59,22.0,3609.299,8.100,164.059,0.100,0.200,0.000,0.700,General,2526.510,2526.510,2526.510,2526.510,2526.510,2526.510,2526.510,2526.510,2526.510,2526.510
 ElectricEquipment Internal Gains Nominal, OFFICE_PRIVATE_0_EQUIPMENT,OFFICE_OPEN_EQUIPMENT,OFFICE_PRIVATE_0,35.22,1.0,285.311,8.100,285.311,0.100,0.200,0.000,0.700,General,199.718,199.718,199.718,199.718,199.718,199.718,199.718,199.718,199.718,199.718
 ElectricEquipment Internal Gains Nominal, STORAGE_0_EQUIPMENT,STORAGE_EQUIPMENT,STORAGE_0,17.72,1.0,19.495,1.100,19.495,0.100,0.200,0.000,0.700,General,13.647,13.647,13.647,13.647,13.647,13.647,13.647,13.647,13.647,13.647
 ElectricEquipment Internal Gains Nominal, LOBBY_1_EQUIPMENT,LOBBY_EQUIPMENT,LOBBY_1,86.87,4.0,277.994,3.200,69.499,0.100,0.200,0.000,0.700,General,194.596,194.596,194.596,194.596,194.596,194.596,194.596,194.596,194.596,194.596
 ElectricEquipment Internal Gains Nominal, CONFERENCE_1_EQUIPMENT,CONFERENCE_EQUIPMENT,CONFERENCE_1,81.51,16.0,660.237,8.100,41.265,0.100,0.200,0.000,0.700,General,462.166,462.166,462.166,462.166,462.166,462.166,462.166,462.166,462.166,462.166
 ElectricEquipment Internal Gains Nominal, BREAK_ROOM_1_EQUIPMENT,BREAK_ROOM_EQUIPMENT,BREAK_ROOM_1,66.40,6.0,996.046,15.000,166.008,0.100,0.200,0.000,0.700,General,697.232,697.232,697.232,697.232,697.232,697.232,697.232,697.232,697.232,697.232
 ElectricEquipment Internal Gains Nominal, MECHANICAL_1_EQUIPMENT,MECHANICAL_EQUIPMENT,MECHANICAL_1,96.17,1.0,0.000,0.000,0.000,0.100,0.200,0.000,0.700,General,0.000,0.000,0.000,0.000,0.000,0.000,0.000,0.000,0.000,0.000
 ElectricEquipment Internal Gains Nominal, OFFICE_OPEN_1_EQUIPMENT,OFFICE_OPEN_EQUIPMENT,OFFICE_OPEN_1,171.40,8.0,1388.373,8.100,173.547,0.100,0.200,0.000,0.700,General,971.861,971.861,971.861,971.861,971.861,971.861,971.861,971.861,971.861,971.861
 ElectricEquipment Internal Gains Nominal, OFFICE_PRIVATE_1_EQUIPMENT,OFFICE_OPEN_EQUIPMENT,OFFICE_PRIVATE_1,17.31,1.0,140.237,8.100,140.237,0.100,0.200,0.000,0.700,General,98.166,98.166,98.166,98.166,98.166,98.166,98.166,98.166,98.166,98.166
 ElectricEquipment Internal Gains Nominal, STORAGE_1_EQUIPMENT,STORAGE_EQUIPMENT,STORAGE_1,33.64,1.0,37.008,1.100,37.008,0.100,0.200,0.000,0.700,General,25.905,25.905,25.905,25.905,25.905,25.905,25.905,25.905,25.905,25.905
 ElectricEquipment Internal Gains Nominal, LOBBY_2_EQUIPMENT,LOBBY_EQUIPMENT,LOBBY_2,101.25,5.0,324.006,3.200,64.801,0.100,0.200,0.000,0.700,General,226.804,226.804,226.804,226.804,226.804,226.804,226.804,226.804,226.804,226.804
 ElectricEquipment Internal Gains Nominal, CONFERENCE_2_EQUIPMENT,CONFERENCE_EQUIPMENT,CONFERENCE_2,30.67,6.0,248.406,8.100,41.401,0.100,0.200,0.000,0.700,General,173.884,173.884,173.884,173.884,173.884,173.884,173.884,173.884,173.884,173.884
 ElectricEquipment Internal Gains Nominal, BREAK_ROOM_2_EQUIPMENT,BREAK_ROOM_EQUIPMENT,BREAK_ROOM_2,69.47,6.0,1041.983,15.000,173.664,0.100,0.200,0.000,0.700,General,729.388,729.388,729.388,729.388,729.388,729.388,729.388,729.388,729.388,729.388
 ElectricEquipment Internal Gains Nominal, MECHANICAL_2_EQUIPMENT,MECHANICAL_EQUIPMENT,MECHANICAL_2,67.32,1.0,0.000,0.000,0.000,0.100,0.200,0.000,0.700,General,0.000,0.000,0.000,0.000,0.000,0.000,0.000,0.000,0.000,0.000
 ElectricEquipment Internal Gains Nominal, OFFICE_OPEN_2_EQUIPMENT,OFFICE_OPEN_EQUIPMENT,OFFICE_OPEN_2,457.79,22.0,3708.059,8.100,168.548,0.100,0.200,0.000,0.700,General,2595.641,2595.641,2595.641,2595.641,2595.641,2595.641,2595.641,2595.641,2595.641,2595.641
 ElectricEquipment Internal Gains Nominal, OFFICE_PRIVATE_2_EQUIPMENT,OFFICE_OPEN_EQUIPMENT,OFFICE_PRIVATE_2,18.68,1.0,151.278,8.100,151.278,0.100,0.200,0.000,0.700,General,105.895,105.895,105.895,105.895,105.895,105.895,105.895,105.895,105.895,105.895
 ElectricEquipment Internal Gains Nominal, STORAGE_2_EQUIPMENT,STORAGE_EQUIPMENT,STORAGE_2,43.05,1.0,47.359,1.100,47.359,0.100,0.200,0.000,0.700,General,33.151,33.151,33.151,33.151,33.151,33.151,33.151,33.151,33.151,33.151
 ElectricEquipment Internal Gains Nominal, CONFERENCE_3_EQUIPMENT,CONFERENCE_EQUIPMENT,CONFERENCE_3,85.61,17.0,693.443,8.100,40.791,0.100,0.200,0.000,0.700,General,485.410,485.410,485.410,485.410,485.410,485.410,485.410,485.410,485.410,485.410
 ElectricEquipment Internal Gains Nominal, BREAK_ROOM_3_EQUIPMENT,BREAK_ROOM_EQUIPMENT,BREAK_ROOM_3,70.19,7.0,1052.801,15.000,150.400,0.100,0.200,0.000,0.700,General,736.961,736.961,736.961,736.961,736.961,736.961,736.961,736.961,736.961,736.961
 ElectricEquipment Internal Gains Nominal, MECHANICAL_3_EQUIPMENT,MECHANICAL_EQUIPMENT,MECHANICAL_3,97.76,1.0,0.000,0.000,0.000,0.100,0.200,0.000,0.700,General,0.000,0.000,0.000,0.000,0.000,0.000,0.000,0.000,0.000,0.000
 ElectricEquipment Internal Gains Nominal, OFFICE_OPEN_3_EQUIPMENT,OFFICE_OPEN_EQUIPMENT,OFFICE_OPEN_3,192.24,9.0,1557.130,8.100,173.014,0.100,0.200,0.000,0.700,General,1089.991,1089.991,1089.991,1089.991,1089.991,1089.991,1089.991,1089.991,1089.991,1089.991
 ElectricEquipment Internal Gains Nominal, STORAGE_3_EQUIPMENT,STORAGE_EQUIPMENT,STORAGE_3,31.92,1.0,35.114,1.100,35.114,0.100,0.200,0.000,0.700,General,24.580,24.580,24.580,24.580,24.580,24.580,24.580,24.580,24.580,24.580
 ElectricEquipment Internal Gains Nominal, LOBBY_4_EQUIPMENT,LOBBY_EQUIPMENT,LOBBY_4,178.65,8.0,571.692,3.200,71.462,0.100,0.200,0.000,0.700,General,400.185,400.185,400.185,400.185,400.185,400.185,400.185,400.185,400.185,400.185
 ElectricEquipment Internal Gains Nominal, CONFERENCE_4_EQUIPMENT,CONFERENCE_EQUIPMENT,CONFERENCE_4,63.30,12.0,512.749,8.100,42.729,0.100,0.200,0.000,0.700,General,358.925,358.925,358.925,358.925,358.925,358.925,358.925,358.925,358.925,358.925
 ElectricEquipment Internal Gains Nominal, BREAK_ROOM_4_EQUIPMENT,BREAK_ROOM_EQUIPMENT,BREAK_ROOM_4,38.20,3.0,572.945,15.000,190.982,0.100,0.200,0.000,0.700,General,401.061,401.061,401.061,401.061,401.061,401.061,401.061,401.061,401.061,401.061
 ElectricEquipment Internal Gains Nominal, MECHANICAL_4_EQUIPMENT,MECHANICAL_EQUIPMENT,MECHANICAL_4,24.38,1.0,0.000,0.000,0.000,0.100,0.200,0.000,0.700,General,0.000,0.000,0.000,0.000,0.000,0.000,0.000,0.000,0.000,0.000
 ElectricEquipment Internal Gains Nominal, OFFICE_OPEN_4_EQUIPMENT,OFFICE_OPEN_EQUIPMENT,OFFICE_OPEN_4,321.41,16.0,2603.458,8.100,162.716,0.100,0.200,0.000,0.700,General,1822.420,1822.420,1822.420,1822.420,1822.420,1822.420,1822.420,1822.420,1822.420,1822.420
 ElectricEquipment Internal Gains Nominal, OFFICE_PRIVATE_4_EQUIPMENT,OFFICE_OPEN_EQUIPMENT,OFFICE_PRIVATE_4,35.97,1.0,291.335,8.100,291.335,0.100,0.200,0.000,0.700,General,203.934,203.934,203.934,203.934,203.934,203.934,203.934,203.934,203.934,203.934
 ElectricEquipment Internal Gains Nominal, STORAGE_4_EQUIPMENT,STORAGE_EQUIPMENT,STORAGE_4,32.83,1.0,36.113,1.100,36.113,0.100,0.200,0.000,0.700,General,25.279,25.279,25.279,25.279,25.279,25.279,25.279,25.279,25.279,25.279
! <RoomAir Model>, Zone Name, Mixing/Mundt/UCSDDV/UCSDCV/UCSDUFI/UCSDUFE/User Defined
RoomAir Model,LOBBY_0,Mixing/Well-Stirred
RoomAir Model,CONFERENCE_0,Mixing/Well-Stirred
RoomAir Model,BREAK_ROOM_0,Mixing/Well-Stirred
RoomAir Model,MECHANICAL_0,Mixing/Well-Stirred
RoomAir Model,OFFICE_OPEN_0,Mixing/Well-Stirred
RoomAir Model,OFFICE_PRIVATE_0,Mixing/Well-Stirred
RoomAir Model,STORAGE_0,Mixing/Well-Stirred
RoomAir Model,LOBBY_1,Mixing/Well-Stirred
RoomAir Model,CONFERENCE_1,Mixing/Well-Stirred
RoomAir Model,BREAK_ROOM_1,Mixing/Well-Stirred
RoomAir Model,MECHANICAL_1,Mixing/Well-Stirred
RoomAir Model,OFFICE_OPEN_1,Mixing/Well-Stirred
RoomAir Model,OFFICE_PRIVATE_1,Mixing/Well-Stirred
RoomAir Model,STORAGE_1,Mixing/Well-Stirred
RoomAir Model,LOBBY_2,Mixing/Well-Stirred
RoomAir Model,CONFERENCE_2,Mixing/Well-Stirred
RoomAir Model,BREAK_ROOM_2,Mixing/Well-Stirred
RoomAir Model,MECHANICAL_2,Mixing/Well-Stirred
RoomAir Model,OFFICE_OPEN_2,Mixing/Well-Stirred
RoomAir Model,OFFICE_PRIVATE_2,Mixing/Well-Stirred
RoomAir Model,STORAGE_2,Mixing/Well-Stirred
RoomAir Model,CONFERENCE_3,Mixing/Well-Stirred
RoomAir Model,BREAK_ROOM_3,Mixing/Well-Stirred
RoomAir Model,MECHANICAL_3,Mixing/Well-Stirred
RoomAir Model,OFFICE_OPEN_3,Mixing/Well-Stirred
RoomAir Model,STORAGE_3,Mixing/Well-Stirred
RoomAir Model,LOBBY_4,Mixing/Well-Stirred
RoomAir Model,CONFERENCE_4,Mixing/Well-Stirred
RoomAir Model,BREAK_ROOM_4,Mixing/Well-Stirred
RoomAir Model,MECHANICAL_4,Mixing/Well-Stirred
RoomAir Model,OFFICE_OPEN_4,Mixing/Well-Stirred
RoomAir Model,OFFICE_PRIVATE_4,Mixing/Well-Stirred
RoomAir Model,STORAGE_4,Mixing/Well-Stirred
! <AirflowNetwork Model:Control>, No Multizone or Distribution/Multizone with Distribution/Multizone without Distribution/Multizone with Distribution only during Fan Operation
AirflowNetwork Model:Control,NoMultizoneOrDistribution
! <Zone Volume Capacitance Multiplier>, Sensible Heat Capacity Multiplier, Moisture Capacity Multiplier, Carbon Dioxide Capacity Multiplier, Generic Contaminant Capacity Multiplier
Zone Volume Capacitance Multiplier,   1.000 ,   1.000,   1.000,   1.000
! <Component Sizing Information>, Component Type, Component Name, Input Field Description, Value
 Component Sizing Information, AirTerminal:SingleDuct:VAV:Reheat, LOBBY_0_Z1_VAVTERMINAL, User-Specified Maximum Air Flow Rate [m3/s], 0.97413
 Component Sizing Information, AirTerminal:SingleDuct:VAV:Reheat, LOBBY_0_Z1_VAVTERMINAL, Design Size Constant Minimum Air Flow Fraction, 0.20000
 Component Sizing Information, AirTerminal:SingleDuct:VAV:Reheat, LOBBY_0_Z1_VAVTERMINAL, User-Specified Constant Minimum Air Flow Fraction, 0.20000
 Component Sizing Information, AirTerminal:SingleDuct:VAV:Reheat, LOBBY_0_Z1_VAVTERMINAL, Design Size Minimum Air Flow Rate [m3/s], 0.19483
 Component Sizing Information, AirTerminal:SingleDuct:VAV:Reheat, LOBBY_0_Z1_VAVTERMINAL, Design Size Maximum Flow per Zone Floor Area during Reheat [m3/s-m2], 9.99995E-004
 Component Sizing Information, AirTerminal:SingleDuct:VAV:Reheat, LOBBY_0_Z1_VAVTERMINAL, Design Size Maximum Flow Fraction during Reheat [], 0.20000
 Component Sizing Information, AirTerminal:SingleDuct:VAV:Reheat, LOBBY_0_Z1_VAVTERMINAL, User-Specified Maximum Reheat Water Flow Rate [m3/s], 15.58616
 Component Sizing Information, Coil:Heating:Electric, LOBBY_0_Z1_REHEATCOIL, User-Specified Nominal Capacity [W], 4675.84793
 Component Sizing Information, AirTerminal:SingleDuct:VAV:Reheat, CONFERENCE_0_Z2_VAVTERMINAL, User-Specified Maximum Air Flow Rate [m3/s], 0.23381
 Component Sizing Information, AirTerminal:SingleDuct:VAV:Reheat, CONFERENCE_0_Z2_VAVTERMINAL, Design Size Constant Minimum Air Flow Fraction, 0.20000
 Component Sizing Information, AirTerminal:SingleDuct:VAV:Reheat, CONFERENCE_0_Z2_VAVTERMINAL, User-Specified Constant Minimum Air Flow Fraction, 0.20000
 Component Sizing Information, AirTerminal:SingleDuct:VAV:Reheat, CONFERENCE_0_Z2_VAVTERMINAL, Design Size Minimum Air Flow Rate [m3/s], 4.67611E-002
 Component Sizing Information, AirTerminal:SingleDuct:VAV:Reheat, CONFERENCE_0_Z2_VAVTERMINAL, Design Size Maximum Flow per Zone Floor Area during Reheat [m3/s-m2], 9.99995E-004
 Component Sizing Information, AirTerminal:SingleDuct:VAV:Reheat, CONFERENCE_0_Z2_VAVTERMINAL, Design Size Maximum Flow Fraction during Reheat [], 0.20000
 Component Sizing Information, AirTerminal:SingleDuct:VAV:Reheat, CONFERENCE_0_Z2_VAVTERMINAL, User-Specified Maximum Reheat Water Flow Rate [m3/s], 3.74089
 Component Sizing Information, Coil:Heating:Electric, CONFERENCE_0_Z2_REHEATCOIL, User-Specified Nominal Capacity [W], 1122.26608
 Component Sizing Information, AirTerminal:SingleDuct:VAV:Reheat, BREAK_ROOM_0_Z3_VAVTERMINAL, User-Specified Maximum Air Flow Rate [m3/s], 0.36632
 Component Sizing Information, AirTerminal:SingleDuct:VAV:Reheat, BREAK_ROOM_0_Z3_VAVTERMINAL, Design Size Constant Minimum Air Flow Fraction, 0.20000
 Component Sizing Information, AirTerminal:SingleDuct:VAV:Reheat, BREAK_ROOM_0_Z3_VAVTERMINAL, User-Specified Constant Minimum Air Flow Fraction, 0.20000
 Component Sizing Information, AirTerminal:SingleDuct:VAV:Reheat, BREAK_ROOM_0_Z3_VAVTERMINAL, Design Size Minimum Air Flow Rate [m3/s], 7.32646E-002
 Component Sizing Information, AirTerminal:SingleDuct:VAV:Reheat, BREAK_ROOM_0_Z3_VAVTERMINAL, Design Size Maximum Flow per Zone Floor Area during Reheat [m3/s-m2], 1.00000E-003
 Component Sizing Information, AirTerminal:SingleDuct:VAV:Reheat, BREAK_ROOM_0_Z3_VAVTERMINAL, Design Size Maximum Flow Fraction during Reheat [], 0.20000
 Component Sizing Information, AirTerminal:SingleDuct:VAV:Reheat, BREAK_ROOM_0_Z3_VAVTERMINAL, User-Specified Maximum Reheat Water Flow Rate [m3/s], 5.86117
 Component Sizing Information, Coil:Heating:Electric, BREAK_ROOM_0_Z3_REHEATCOIL, User-Specified Nominal Capacity [W], 1758.35053
 Component Sizing Information, AirTerminal:SingleDuct:VAV:Reheat, MECHANICAL_0_Z4_VAVTERMINAL, User-Specified Maximum Air Flow Rate [m3/s], 0.22136
 Component Sizing Information, AirTerminal:SingleDuct:VAV:Reheat, MECHANICAL_0_Z4_VAVTERMINAL, Design Size Constant Minimum Air Flow Fraction, 0.20000
 Component Sizing Information, AirTerminal:SingleDuct:VAV:Reheat, MECHANICAL_0_Z4_VAVTERMINAL, User-Specified Constant Minimum Air Flow Fraction, 0.20000
 Component Sizing Information, AirTerminal:SingleDuct:VAV:Reheat, MECHANICAL_0_Z4_VAVTERMINAL, Design Size Minimum Air Flow Rate [m3/s], 4.42727E-002
 Component Sizing Information, AirTerminal:SingleDuct:VAV:Reheat, MECHANICAL_0_Z4_VAVTERMINAL, Design Size Maximum Flow per Zone Floor Area during Reheat [m3/s-m2], 1.00001E-003
 Component Sizing Information, AirTerminal:SingleDuct:VAV:Reheat, MECHANICAL_0_Z4_VAVTERMINAL, Design Size Maximum Flow Fraction during Reheat [], 0.20000
 Component Sizing Information, AirTerminal:SingleDuct:VAV:Reheat, MECHANICAL_0_Z4_VAVTERMINAL, User-Specified Maximum Reheat Water Flow Rate [m3/s], 3.54182
 Component Sizing Information, Coil:Heating:Electric, MECHANICAL_0_Z4_REHEATCOIL, User-Specified Nominal Capacity [W], 1062.54461
 Component Sizing Information, AirTerminal:SingleDuct:VAV:Reheat, OFFICE_OPEN_0_Z5_VAVTERMINAL, User-Specified Maximum Air Flow Rate [m3/s], 2.22797
 Component Sizing Information, AirTerminal:SingleDuct:VAV:Reheat, OFFICE_OPEN_0_Z5_VAVTERMINAL, Design Size Constant Minimum Air Flow Fraction, 0.20000
 Component Sizing Information, AirTerminal:SingleDuct:VAV:Reheat, OFFICE_OPEN_0_Z5_VAVTERMINAL, User-Specified Constant Minimum Air Flow Fraction, 0.20000
 Component Sizing Information, AirTerminal:SingleDuct:VAV:Reheat, OFFICE_OPEN_0_Z5_VAVTERMINAL, Design Size Minimum Air Flow Rate [m3/s], 0.44559
 Component Sizing Information, AirTerminal:SingleDuct:VAV:Reheat, OFFICE_OPEN_0_Z5_VAVTERMINAL, Design Size Maximum Flow per Zone Floor Area during Reheat [m3/s-m2], 1.00000E-003
 Component Sizing Information, AirTerminal:SingleDuct:VAV:Reheat, OFFICE_OPEN_0_Z5_VAVTERMINAL, Design Size Maximum Flow Fraction during Reheat [], 0.20000
 Component Sizing Information, AirTerminal:SingleDuct:VAV:Reheat, OFFICE_OPEN_0_Z5_VAVTERMINAL, User-Specified Maximum Reheat Water Flow Rate [m3/s], 35.64753
 Component Sizing Information, Coil:Heating:Electric, OFFICE_OPEN_0_Z5_REHEATCOIL, User-Specified Nominal Capacity [W], 10694.25987
 Component Sizing Information, AirTerminal:SingleDuct:VAV:Reheat, OFFICE_PRIVATE_0_Z6_VAVTERMINAL, User-Specified Maximum Air Flow Rate [m3/s], 0.17612
 Component Sizing Information, AirTerminal:SingleDuct:VAV:Reheat, OFFICE_PRIVATE_0_Z6_VAVTERMINAL, Design Size Constant Minimum Air Flow Fraction, 0.20000
 Component Sizing Information, AirTerminal:SingleDuct:VAV:Reheat, OFFICE_PRIVATE_0_Z6_VAVTERMINAL, User-Specified Constant Minimum Air Flow Fraction, 0.20000
 Component Sizing Information, AirTerminal:SingleDuct:VAV:Reheat, OFFICE_PRIVATE_0_Z6_VAVTERMINAL, Design Size Minimum Air Flow Rate [m3/s], 3.52236E-002
 Component Sizing Information, AirTerminal:SingleDuct:VAV:Reheat, OFFICE_PRIVATE_0_Z6_VAVTERMINAL, Design Size Maximum Flow per Zone Floor Area during Reheat [m3/s-m2], 9.99999E-004
 Component Sizing Information, AirTerminal:SingleDuct:VAV:Reheat, OFFICE_PRIVATE_0_Z6_VAVTERMINAL, Design Size Maximum Flow Fraction during Reheat [], 0.20000
 Component Sizing Information, AirTerminal:SingleDuct:VAV:Reheat, OFFICE_PRIVATE_0_Z6_VAVTERMINAL, User-Specified Maximum Reheat Water Flow Rate [m3/s], 2.81789
 Component Sizing Information, Coil:Heating:Electric, OFFICE_PRIVATE_0_Z6_REHEATCOIL, User-Specified Nominal Capacity [W], 845.36597
 Component Sizing Information, AirTerminal:SingleDuct:VAV:Reheat, STORAGE_0_Z7_VAVTERMINAL, User-Specified Maximum Air Flow Rate [m3/s], 8.86166E-002
 Component Sizing Information, AirTerminal:SingleDuct:VAV:Reheat, STORAGE_0_Z7_VAVTERMINAL, Design Size Constant Minimum Air Flow Fraction, 0.20000
 Component Sizing Information, AirTerminal:SingleDuct:VAV:Reheat, STORAGE_0_Z7_VAVTERMINAL, User-Specified Constant Minimum Air Flow Fraction, 0.20000
 Component Sizing Information, AirTerminal:SingleDuct:VAV:Reheat, STORAGE_0_Z7_VAVTERMINAL, Design Size Minimum Air Flow Rate [m3/s], 1.77233E-002
 Component Sizing Information, AirTerminal:SingleDuct:VAV:Reheat, STORAGE_0_Z7_VAVTERMINAL, Design Size Maximum Flow per Zone Floor Area during Reheat [m3/s-m2], 1.00003E-003
 Component Sizing Information, AirTerminal:SingleDuct:VAV:Reheat, STORAGE_0_Z7_VAVTERMINAL, Design Size Maximum Flow Fraction during Reheat [], 0.20000
 Component Sizing Information, AirTerminal:SingleDuct:VAV:Reheat, STORAGE_0_Z7_VAVTERMINAL, User-Specified Maximum Reheat Water Flow Rate [m3/s], 1.41787
 Component Sizing Information, Coil:Heating:Electric, STORAGE_0_Z7_REHEATCOIL, User-Specified Nominal Capacity [W], 425.35981
 Component Sizing Information, AirTerminal:SingleDuct:VAV:Reheat, LOBBY_1_Z8_VAVTERMINAL, User-Specified Maximum Air Flow Rate [m3/s], 0.43436
 Component Sizing Information, AirTerminal:SingleDuct:VAV:Reheat, LOBBY_1_Z8_VAVTERMINAL, Design Size Constant Minimum Air Flow Fraction, 0.20000
 Component Sizing Information, AirTerminal:SingleDuct:VAV:Reheat, LOBBY_1_Z8_VAVTERMINAL, User-Specified Constant Minimum Air Flow Fraction, 0.20000
 Component Sizing Information, AirTerminal:SingleDuct:VAV:Reheat, LOBBY_1_Z8_VAVTERMINAL, Design Size Minimum Air Flow Rate [m3/s], 8.68726E-002
 Component Sizing Information, AirTerminal:SingleDuct:VAV:Reheat, LOBBY_1_Z8_VAVTERMINAL, Design Size Maximum Flow per Zone Floor Area during Reheat [m3/s-m2], 9.99994E-004
 Component Sizing Information, AirTerminal:SingleDuct:VAV:Reheat, LOBBY_1_Z8_VAVTERMINAL, Design Size Maximum Flow Fraction during Reheat [], 0.20000
 Component Sizing Information, AirTerminal:SingleDuct:VAV:Reheat, LOBBY_1_Z8_VAVTERMINAL, User-Specified Maximum Reheat Water Flow Rate [m3/s], 6.94981
 Component Sizing Information, Coil:Heating:Electric, LOBBY_1_Z8_REHEATCOIL, User-Specified Nominal Capacity [W], 2084.94323
 Component Sizing Information, AirTerminal:SingleDuct:VAV:Reheat, CONFERENCE_1_Z9_VAVTERMINAL, User-Specified Maximum Air Flow Rate [m3/s], 0.40755
 Component Sizing Information, AirTerminal:SingleDuct:VAV:Reheat, CONFERENCE_1_Z9_VAVTERMINAL, Design Size Constant Minimum Air Flow Fraction, 0.20000
 Component Sizing Information, AirTerminal:SingleDuct:VAV:Reheat, CONFERENCE_1_Z9_VAVTERMINAL, User-Specified Constant Minimum Air Flow Fraction, 0.20000
 Component Sizing Information, AirTerminal:SingleDuct:VAV:Reheat, CONFERENCE_1_Z9_VAVTERMINAL, Design Size Minimum Air Flow Rate [m3/s], 8.15102E-002
 Component Sizing Information, AirTerminal:SingleDuct:VAV:Reheat, CONFERENCE_1_Z9_VAVTERMINAL, Design Size Maximum Flow per Zone Floor Area during Reheat [m3/s-m2], 9.99994E-004
 Component Sizing Information, AirTerminal:SingleDuct:VAV:Reheat, CONFERENCE_1_Z9_VAVTERMINAL, Design Size Maximum Flow Fraction during Reheat [], 0.20000
 Component Sizing Information, AirTerminal:SingleDuct:VAV:Reheat, CONFERENCE_1_Z9_VAVTERMINAL, User-Specified Maximum Reheat Water Flow Rate [m3/s], 6.52082
 Component Sizing Information, Coil:Heating:Electric, CONFERENCE_1_Z9_REHEATCOIL, User-Specified Nominal Capacity [W], 1956.24473
 Component Sizing Information, AirTerminal:SingleDuct:VAV:Reheat, BREAK_ROOM_1_Z10_VAVTERMINAL, User-Specified Maximum Air Flow Rate [m3/s], 0.33201
 Component Sizing Information, AirTerminal:SingleDuct:VAV:Reheat, BREAK_ROOM_1_Z10_VAVTERMINAL, Design Size Constant Minimum Air Flow Fraction, 0.20000
 Component Sizing Information, AirTerminal:SingleDuct:VAV:Reheat, BREAK_ROOM_1_Z10_VAVTERMINAL, User-Specified Constant Minimum Air Flow Fraction, 0.20000
 Component Sizing Information, AirTerminal:SingleDuct:VAV:Reheat, BREAK_ROOM_1_Z10_VAVTERMINAL, Design Size Minimum Air Flow Rate [m3/s], 6.64030E-002
 Component Sizing Information, AirTerminal:SingleDuct:VAV:Reheat, BREAK_ROOM_1_Z10_VAVTERMINAL, Design Size Maximum Flow per Zone Floor Area during Reheat [m3/s-m2], 9.99999E-004
 Component Sizing Information, AirTerminal:SingleDuct:VAV:Reheat, BREAK_ROOM_1_Z10_VAVTERMINAL, Design Size Maximum Flow Fraction during Reheat [], 0.20000
 Component Sizing Information, AirTerminal:SingleDuct:VAV:Reheat, BREAK_ROOM_1_Z10_VAVTERMINAL, User-Specified Maximum Reheat Water Flow Rate [m3/s], 5.31224
 Component Sizing Information, Coil:Heating:Electric, BREAK_ROOM_1_Z10_REHEATCOIL, User-Specified Nominal Capacity [W], 1593.67174
 Component Sizing Information, AirTerminal:SingleDuct:VAV:Reheat, MECHANICAL_1_Z11_VAVTERMINAL, User-Specified Maximum Air Flow Rate [m3/s], 0.48084
 Component Sizing Information, AirTerminal:SingleDuct:VAV:Reheat, MECHANICAL_1_Z11_VAVTERMINAL, Design Size Constant Minimum Air Flow Fraction, 0.20000
 Component Sizing Information, AirTerminal:SingleDuct:VAV:Reheat, MECHANICAL_1_Z11_VAVTERMINAL, User-Specified Constant Minimum Air Flow Fraction, 0.20000
 Component Sizing Information, AirTerminal:SingleDuct:VAV:Reheat, MECHANICAL_1_Z11_VAVTERMINAL, Design Size Minimum Air Flow Rate [m3/s], 9.61683E-002
 Component Sizing Information, AirTerminal:SingleDuct:VAV:Reheat, MECHANICAL_1_Z11_VAVTERMINAL, Design Size Maximum Flow per Zone Floor Area during Reheat [m3/s-m2], 9.99996E-004
 Component Sizing Information, AirTerminal:SingleDuct:VAV:Reheat, MECHANICAL_1_Z11_VAVTERMINAL, Design Size Maximum Flow Fraction during Reheat [], 0.20000
 Component Sizing Information, AirTerminal:SingleDuct:VAV:Reheat, MECHANICAL_1_Z11_VAVTERMINAL, User-Specified Maximum Reheat Water Flow Rate [m3/s], 7.69347
 Component Sizing Information, Coil:Heating:Electric, MECHANICAL_1_Z11_REHEATCOIL, User-Specified Nominal Capacity [W], 2308.03981
 Component Sizing Information, AirTerminal:SingleDuct:VAV:Reheat, OFFICE_OPEN_1_Z12_VAVTERMINAL, User-Specified Maximum Air Flow Rate [m3/s], 0.85702
 Component Sizing Information, AirTerminal:SingleDuct:VAV:Reheat, OFFICE_OPEN_1_Z12_VAVTERMINAL, Design Size Constant Minimum Air Flow Fraction, 0.20000
 Component Sizing Information, AirTerminal:SingleDuct:VAV:Reheat, OFFICE_OPEN_1_Z12_VAVTERMINAL, User-Specified Constant Minimum Air Flow Fraction, 0.20000
 Component Sizing Information, AirTerminal:SingleDuct:VAV:Reheat, OFFICE_OPEN_1_Z12_VAVTERMINAL, Design Size Minimum Air Flow Rate [m3/s], 0.17140
 Component Sizing Information, AirTerminal:SingleDuct:VAV:Reheat, OFFICE_OPEN_1_Z12_VAVTERMINAL, Design Size Maximum Flow per Zone Floor Area during Reheat [m3/s-m2], 9.99995E-004
 Component Sizing Information, AirTerminal:SingleDuct:VAV:Reheat, OFFICE_OPEN_1_Z12_VAVTERMINAL, Design Size Maximum Flow Fraction during Reheat [], 0.20000
 Component Sizing Information, AirTerminal:SingleDuct:VAV:Reheat, OFFICE_OPEN_1_Z12_VAVTERMINAL, User-Specified Maximum Reheat Water Flow Rate [m3/s], 13.71225
 Component Sizing Information, Coil:Heating:Electric, OFFICE_OPEN_1_Z12_REHEATCOIL, User-Specified Nominal Capacity [W], 4113.67472
 Component Sizing Information, AirTerminal:SingleDuct:VAV:Reheat, OFFICE_PRIVATE_1_Z13_VAVTERMINAL, User-Specified Maximum Air Flow Rate [m3/s], 8.65677E-002
 Component Sizing Information, AirTerminal:SingleDuct:VAV:Reheat, OFFICE_PRIVATE_1_Z13_VAVTERMINAL, Design Size Constant Minimum Air Flow Fraction, 0.20000
 Component Sizing Information, AirTerminal:SingleDuct:VAV:Reheat, OFFICE_PRIVATE_1_Z13_VAVTERMINAL, User-Specified Constant Minimum Air Flow Fraction, 0.20000
 Component Sizing Information, AirTerminal:SingleDuct:VAV:Reheat, OFFICE_PRIVATE_1_Z13_VAVTERMINAL, Design Size Minimum Air Flow Rate [m3/s], 1.73135E-002
 Component Sizing Information, AirTerminal:SingleDuct:VAV:Reheat, OFFICE_PRIVATE_1_Z13_VAVTERMINAL, Design Size Maximum Flow per Zone Floor Area during Reheat [m3/s-m2], 1.00002E-003
 Component Sizing Information, AirTerminal:SingleDuct:VAV:Reheat, OFFICE_PRIVATE_1_Z13_VAVTERMINAL, Design Size Maximum Flow Fraction during Reheat [], 0.20000
 Component Sizing Information, AirTerminal:SingleDuct:VAV:Reheat, OFFICE_PRIVATE_1_Z13_VAVTERMINAL, User-Specified Maximum Reheat Water Flow Rate [m3/s], 1.38508
 Component Sizing Information, Coil:Heating:Electric, OFFICE_PRIVATE_1_Z13_REHEATCOIL, User-Specified Nominal Capacity [W], 415.52476
 Component Sizing Information, AirTerminal:SingleDuct:VAV:Reheat, STORAGE_1_Z14_VAVTERMINAL, User-Specified Maximum Air Flow Rate [m3/s], 0.16822
 Component Sizing Information, AirTerminal:SingleDuct:VAV:Reheat, STORAGE_1_Z14_VAVTERMINAL, Design Size Constant Minimum Air Flow Fraction, 0.20000
 Component Sizing Information, AirTerminal:SingleDuct:VAV:Reheat, STORAGE_1_Z14_VAVTERMINAL, User-Specified Constant Minimum Air Flow Fraction, 0.20000
 Component Sizing Information, AirTerminal:SingleDuct:VAV:Reheat, STORAGE_1_Z14_VAVTERMINAL, Design Size Minimum Air Flow Rate [m3/s], 3.36431E-002
 Component Sizing Information, AirTerminal:SingleDuct:VAV:Reheat, STORAGE_1_Z14_VAVTERMINAL, Design Size Maximum Flow per Zone Floor Area during Reheat [m3/s-m2], 9.99994E-004
 Component Sizing Information, AirTerminal:SingleDuct:VAV:Reheat, STORAGE_1_Z14_VAVTERMINAL, Design Size Maximum Flow Fraction during Reheat [], 0.20000
 Component Sizing Information, AirTerminal:SingleDuct:VAV:Reheat, STORAGE_1_Z14_VAVTERMINAL, User-Specified Maximum Reheat Water Flow Rate [m3/s], 2.69145
 Component Sizing Information, Coil:Heating:Electric, STORAGE_1_Z14_REHEATCOIL, User-Specified Nominal Capacity [W], 807.43422
 Component Sizing Information, AirTerminal:SingleDuct:VAV:Reheat, LOBBY_2_Z15_VAVTERMINAL, User-Specified Maximum Air Flow Rate [m3/s], 0.50626
 Component Sizing Information, AirTerminal:SingleDuct:VAV:Reheat, LOBBY_2_Z15_VAVTERMINAL, Design Size Constant Minimum Air Flow Fraction, 0.20000
 Component Sizing Information, AirTerminal:SingleDuct:VAV:Reheat, LOBBY_2_Z15_VAVTERMINAL, User-Specified Constant Minimum Air Flow Fraction, 0.20000
 Component Sizing Information, AirTerminal:SingleDuct:VAV:Reheat, LOBBY_2_Z15_VAVTERMINAL, Design Size Minimum Air Flow Rate [m3/s], 0.10125
 Component Sizing Information, AirTerminal:SingleDuct:VAV:Reheat, LOBBY_2_Z15_VAVTERMINAL, Design Size Maximum Flow per Zone Floor Area during Reheat [m3/s-m2], 1.00001E-003
 Component Sizing Information, AirTerminal:SingleDuct:VAV:Reheat, LOBBY_2_Z15_VAVTERMINAL, Design Size Maximum Flow Fraction during Reheat [], 0.20000
 Component Sizing Information, AirTerminal:SingleDuct:VAV:Reheat, LOBBY_2_Z15_VAVTERMINAL, User-Specified Maximum Reheat Water Flow Rate [m3/s], 8.10021
 Component Sizing Information, Coil:Heating:Electric, LOBBY_2_Z15_REHEATCOIL, User-Specified Nominal Capacity [W], 2430.06325
 Component Sizing Information, AirTerminal:SingleDuct:VAV:Reheat, CONFERENCE_2_Z16_VAVTERMINAL, User-Specified Maximum Air Flow Rate [m3/s], 0.15333
 Component Sizing Information, AirTerminal:SingleDuct:VAV:Reheat, CONFERENCE_2_Z16_VAVTERMINAL, Design Size Constant Minimum Air Flow Fraction, 0.20000
 Component Sizing Information, AirTerminal:SingleDuct:VAV:Reheat, CONFERENCE_2_Z16_VAVTERMINAL, User-Specified Constant Minimum Air Flow Fraction, 0.20000
 Component Sizing Information, AirTerminal:SingleDuct:VAV:Reheat, CONFERENCE_2_Z16_VAVTERMINAL, Design Size Minimum Air Flow Rate [m3/s], 3.06669E-002
 Component Sizing Information, AirTerminal:SingleDuct:VAV:Reheat, CONFERENCE_2_Z16_VAVTERMINAL, Design Size Maximum Flow per Zone Floor Area during Reheat [m3/s-m2], 9.99983E-004
 Component Sizing Information, AirTerminal:SingleDuct:VAV:Reheat, CONFERENCE_2_Z16_VAVTERMINAL, Design Size Maximum Flow Fraction during Reheat [], 0.20000
 Component Sizing Information, AirTerminal:SingleDuct:VAV:Reheat, CONFERENCE_2_Z16_VAVTERMINAL, User-Specified Maximum Reheat Water Flow Rate [m3/s], 2.45335
 Component Sizing Information, Coil:Heating:Electric, CONFERENCE_2_Z16_REHEATCOIL, User-Specified Nominal Capacity [W], 736.00485
 Component Sizing Information, AirTerminal:SingleDuct:VAV:Reheat, BREAK_ROOM_2_Z17_VAVTERMINAL, User-Specified Maximum Air Flow Rate [m3/s], 0.34733
 Component Sizing Information, AirTerminal:SingleDuct:VAV:Reheat, BREAK_ROOM_2_Z17_VAVTERMINAL, Design Size Constant Minimum Air Flow Fraction, 0.20000
 Component Sizing Information, AirTerminal:SingleDuct:VAV:Reheat, BREAK_ROOM_2_Z17_VAVTERMINAL, User-Specified Constant Minimum Air Flow Fraction, 0.20000
 Component Sizing Information, AirTerminal:SingleDuct:VAV:Reheat, BREAK_ROOM_2_Z17_VAVTERMINAL, Design Size Minimum Air Flow Rate [m3/s], 6.94659E-002
 Component Sizing Information, AirTerminal:SingleDuct:VAV:Reheat, BREAK_ROOM_2_Z17_VAVTERMINAL, Design Size Maximum Flow per Zone Floor Area during Reheat [m3/s-m2], 1.00001E-003
 Component Sizing Information, AirTerminal:SingleDuct:VAV:Reheat, BREAK_ROOM_2_Z17_VAVTERMINAL, Design Size Maximum Flow Fraction during Reheat [], 0.20000
 Component Sizing Information, AirTerminal:SingleDuct:VAV:Reheat, BREAK_ROOM_2_Z17_VAVTERMINAL, User-Specified Maximum Reheat Water Flow Rate [m3/s], 5.55727
 Component Sizing Information, Coil:Heating:Electric, BREAK_ROOM_2_Z17_REHEATCOIL, User-Specified Nominal Capacity [W], 1667.18194
 Component Sizing Information, AirTerminal:SingleDuct:VAV:Reheat, MECHANICAL_2_Z18_VAVTERMINAL, User-Specified Maximum Air Flow Rate [m3/s], 0.33659
 Component Sizing Information, AirTerminal:SingleDuct:VAV:Reheat, MECHANICAL_2_Z18_VAVTERMINAL, Design Size Constant Minimum Air Flow Fraction, 0.20000
 Component Sizing Information, AirTerminal:SingleDuct:VAV:Reheat, MECHANICAL_2_Z18_VAVTERMINAL, User-Specified Constant Minimum Air Flow Fraction, 0.20000
 Component Sizing Information, AirTerminal:SingleDuct:VAV:Reheat, MECHANICAL_2_Z18_VAVTERMINAL, Design Size Minimum Air Flow Rate [m3/s], 6.73175E-002
 Component Sizing Information, AirTerminal:SingleDuct:VAV:Reheat, MECHANICAL_2_Z18_VAVTERMINAL, Design Size Maximum Flow per Zone Floor Area during Reheat [m3/s-m2], 1.00001E-003
 Component Sizing Information, AirTerminal:SingleDuct:VAV:Reheat, MECHANICAL_2_Z18_VAVTERMINAL, Design Size Maximum Flow Fraction during Reheat [], 0.20000
 Component Sizing Information, AirTerminal:SingleDuct:VAV:Reheat, MECHANICAL_2_Z18_VAVTERMINAL, User-Specified Maximum Reheat Water Flow Rate [m3/s], 5.38540
 Component Sizing Information, Coil:Heating:Electric, MECHANICAL_2_Z18_REHEATCOIL, User-Specified Nominal Capacity [W], 1615.62109
 Component Sizing Information, AirTerminal:SingleDuct:VAV:Reheat, OFFICE_OPEN_2_Z19_VAVTERMINAL, User-Specified Maximum Air Flow Rate [m3/s], 2.28893
 Component Sizing Information, AirTerminal:SingleDuct:VAV:Reheat, OFFICE_OPEN_2_Z19_VAVTERMINAL, Design Size Constant Minimum Air Flow Fraction, 0.20000
 Component Sizing Information, AirTerminal:SingleDuct:VAV:Reheat, OFFICE_OPEN_2_Z19_VAVTERMINAL, User-Specified Constant Minimum Air Flow Fraction, 0.20000
 Component Sizing Information, AirTerminal:SingleDuct:VAV:Reheat, OFFICE_OPEN_2_Z19_VAVTERMINAL, Design Size Minimum Air Flow Rate [m3/s], 0.45779
 Component Sizing Information, AirTerminal:SingleDuct:VAV:Reheat, OFFICE_OPEN_2_Z19_VAVTERMINAL, Design Size Maximum Flow per Zone Floor Area during Reheat [m3/s-m2], 1.00000E-003
 Component Sizing Information, AirTerminal:SingleDuct:VAV:Reheat, OFFICE_OPEN_2_Z19_VAVTERMINAL, Design Size Maximum Flow Fraction during Reheat [], 0.20000
 Component Sizing Information, AirTerminal:SingleDuct:VAV:Reheat, OFFICE_OPEN_2_Z19_VAVTERMINAL, User-Specified Maximum Reheat Water Flow Rate [m3/s], 36.62284
 Component Sizing Information, Coil:Heating:Electric, OFFICE_OPEN_2_Z19_REHEATCOIL, User-Specified Nominal Capacity [W], 10986.85239
 Component Sizing Information, AirTerminal:SingleDuct:VAV:Reheat, OFFICE_PRIVATE_2_Z20_VAVTERMINAL, User-Specified Maximum Air Flow Rate [m3/s], 9.33796E-002
 Component Sizing Information, AirTerminal:SingleDuct:VAV:Reheat, OFFICE_PRIVATE_2_Z20_VAVTERMINAL, Design Size Constant Minimum Air Flow Fraction, 0.20000
 Component Sizing Information, AirTerminal:SingleDuct:VAV:Reheat, OFFICE_PRIVATE_2_Z20_VAVTERMINAL, User-Specified Constant Minimum Air Flow Fraction, 0.20000
 Component Sizing Information, AirTerminal:SingleDuct:VAV:Reheat, OFFICE_PRIVATE_2_Z20_VAVTERMINAL, Design Size Minimum Air Flow Rate [m3/s], 1.86759E-002
 Component Sizing Information, AirTerminal:SingleDuct:VAV:Reheat, OFFICE_PRIVATE_2_Z20_VAVTERMINAL, Design Size Maximum Flow per Zone Floor Area during Reheat [m3/s-m2], 9.99980E-004
 Component Sizing Information, AirTerminal:SingleDuct:VAV:Reheat, OFFICE_PRIVATE_2_Z20_VAVTERMINAL, Design Size Maximum Flow Fraction during Reheat [], 0.20000
 Component Sizing Information, AirTerminal:SingleDuct:VAV:Reheat, OFFICE_PRIVATE_2_Z20_VAVTERMINAL, User-Specified Maximum Reheat Water Flow Rate [m3/s], 1.49407
 Component Sizing Information, Coil:Heating:Electric, OFFICE_PRIVATE_2_Z20_REHEATCOIL, User-Specified Nominal Capacity [W], 448.22202
 Component Sizing Information, AirTerminal:SingleDuct:VAV:Reheat, STORAGE_2_Z21_VAVTERMINAL, User-Specified Maximum Air Flow Rate [m3/s], 0.21527
 Component Sizing Information, AirTerminal:SingleDuct:VAV:Reheat, STORAGE_2_Z21_VAVTERMINAL, Design Size Constant Minimum Air Flow Fraction, 0.20000
 Component Sizing Information, AirTerminal:SingleDuct:VAV:Reheat, STORAGE_2_Z21_VAVTERMINAL, User-Specified Constant Minimum Air Flow Fraction, 0.20000
 Component Sizing Information, AirTerminal:SingleDuct:VAV:Reheat, STORAGE_2_Z21_VAVTERMINAL, Design Size Minimum Air Flow Rate [m3/s], 4.30539E-002
 Component Sizing Information, AirTerminal:SingleDuct:VAV:Reheat, STORAGE_2_Z21_VAVTERMINAL, Design Size Maximum Flow per Zone Floor Area during Reheat [m3/s-m2], 1.00002E-003
 Component Sizing Information, AirTerminal:SingleDuct:VAV:Reheat, STORAGE_2_Z21_VAVTERMINAL, Design Size Maximum Flow Fraction during Reheat [], 0.20000
 Component Sizing Information, AirTerminal:SingleDuct:VAV:Reheat, STORAGE_2_Z21_VAVTERMINAL, User-Specified Maximum Reheat Water Flow Rate [m3/s], 3.44432
 Component Sizing Information, Coil:Heating:Electric, STORAGE_2_Z21_REHEATCOIL, User-Specified Nominal Capacity [W], 1033.29462
 Component Sizing Information, AirTerminal:SingleDuct:VAV:Reheat, CONFERENCE_3_Z22_VAVTERMINAL, User-Specified Maximum Air Flow Rate [m3/s], 0.42805
 Component Sizing Information, AirTerminal:SingleDuct:VAV:Reheat, CONFERENCE_3_Z22_VAVTERMINAL, Design Size Constant Minimum Air Flow Fraction, 0.20000
 Component Sizing Information, AirTerminal:SingleDuct:VAV:Reheat, CONFERENCE_3_Z22_VAVTERMINAL, User-Specified Constant Minimum Air Flow Fraction, 0.20000
 Component Sizing Information, AirTerminal:SingleDuct:VAV:Reheat, CONFERENCE_3_Z22_VAVTERMINAL, Design Size Minimum Air Flow Rate [m3/s], 8.56103E-002
 Component Sizing Information, AirTerminal:SingleDuct:VAV:Reheat, CONFERENCE_3_Z22_VAVTERMINAL, Design Size Maximum Flow per Zone Floor Area during Reheat [m3/s-m2], 1.00000E-003
 Component Sizing Information, AirTerminal:SingleDuct:VAV:Reheat, CONFERENCE_3_Z22_VAVTERMINAL, Design Size Maximum Flow Fraction during Reheat [], 0.20000
 Component Sizing Information, AirTerminal:SingleDuct:VAV:Reheat, CONFERENCE_3_Z22_VAVTERMINAL, User-Specified Maximum Reheat Water Flow Rate [m3/s], 6.84883
 Component Sizing Information, Coil:Heating:Electric, CONFERENCE_3_Z22_REHEATCOIL, User-Specified Nominal Capacity [W], 2054.64801
 Component Sizing Information, AirTerminal:SingleDuct:VAV:Reheat, BREAK_ROOM_3_Z23_VAVTERMINAL, User-Specified Maximum Air Flow Rate [m3/s], 0.35094
 Component Sizing Information, AirTerminal:SingleDuct:VAV:Reheat, BREAK_ROOM_3_Z23_VAVTERMINAL, Design Size Constant Minimum Air Flow Fraction, 0.20000
 Component Sizing Information, AirTerminal:SingleDuct:VAV:Reheat, BREAK_ROOM_3_Z23_VAVTERMINAL, User-Specified Constant Minimum Air Flow Fraction, 0.20000
 Component Sizing Information, AirTerminal:SingleDuct:VAV:Reheat, BREAK_ROOM_3_Z23_VAVTERMINAL, Design Size Minimum Air Flow Rate [m3/s], 7.01873E-002
 Component Sizing Information, AirTerminal:SingleDuct:VAV:Reheat, BREAK_ROOM_3_Z23_VAVTERMINAL, Design Size Maximum Flow per Zone Floor Area during Reheat [m3/s-m2], 1.00001E-003
 Component Sizing Information, AirTerminal:SingleDuct:VAV:Reheat, BREAK_ROOM_3_Z23_VAVTERMINAL, Design Size Maximum Flow Fraction during Reheat [], 0.20000
 Component Sizing Information, AirTerminal:SingleDuct:VAV:Reheat, BREAK_ROOM_3_Z23_VAVTERMINAL, User-Specified Maximum Reheat Water Flow Rate [m3/s], 5.61498
 Component Sizing Information, Coil:Heating:Electric, BREAK_ROOM_3_Z23_REHEATCOIL, User-Specified Nominal Capacity [W], 1684.49425
 Component Sizing Information, AirTerminal:SingleDuct:VAV:Reheat, MECHANICAL_3_Z24_VAVTERMINAL, User-Specified Maximum Air Flow Rate [m3/s], 0.48882
 Component Sizing Information, AirTerminal:SingleDuct:VAV:Reheat, MECHANICAL_3_Z24_VAVTERMINAL, Design Size Constant Minimum Air Flow Fraction, 0.20000
 Component Sizing Information, AirTerminal:SingleDuct:VAV:Reheat, MECHANICAL_3_Z24_VAVTERMINAL, User-Specified Constant Minimum Air Flow Fraction, 0.20000
 Component Sizing Information, AirTerminal:SingleDuct:VAV:Reheat, MECHANICAL_3_Z24_VAVTERMINAL, Design Size Minimum Air Flow Rate [m3/s], 9.77644E-002
 Component Sizing Information, AirTerminal:SingleDuct:VAV:Reheat, MECHANICAL_3_Z24_VAVTERMINAL, Design Size Maximum Flow per Zone Floor Area during Reheat [m3/s-m2], 1.00000E-003
 Component Sizing Information, AirTerminal:SingleDuct:VAV:Reheat, MECHANICAL_3_Z24_VAVTERMINAL, Design Size Maximum Flow Fraction during Reheat [], 0.20000
 Component Sizing Information, AirTerminal:SingleDuct:VAV:Reheat, MECHANICAL_3_Z24_VAVTERMINAL, User-Specified Maximum Reheat Water Flow Rate [m3/s], 7.82115
 Component Sizing Information, Coil:Heating:Electric, MECHANICAL_3_Z24_REHEATCOIL, User-Specified Nominal Capacity [W], 2346.34592
 Component Sizing Information, AirTerminal:SingleDuct:VAV:Reheat, OFFICE_OPEN_3_Z25_VAVTERMINAL, User-Specified Maximum Air Flow Rate [m3/s], 0.96119
 Component Sizing Information, AirTerminal:SingleDuct:VAV:Reheat, OFFICE_OPEN_3_Z25_VAVTERMINAL, Design Size Constant Minimum Air Flow Fraction, 0.20000
 Component Sizing Information, AirTerminal:SingleDuct:VAV:Reheat, OFFICE_OPEN_3_Z25_VAVTERMINAL, User-Specified Constant Minimum Air Flow Fraction, 0.20000
 Component Sizing Information, AirTerminal:SingleDuct:VAV:Reheat, OFFICE_OPEN_3_Z25_VAVTERMINAL, Design Size Minimum Air Flow Rate [m3/s], 0.19224
 Component Sizing Information, AirTerminal:SingleDuct:VAV:Reheat, OFFICE_OPEN_3_Z25_VAVTERMINAL, Design Size Maximum Flow per Zone Floor Area during Reheat [m3/s-m2], 1.00000E-003
 Component Sizing Information, AirTerminal:SingleDuct:VAV:Reheat, OFFICE_OPEN_3_Z25_VAVTERMINAL, Design Size Maximum Flow Fraction during Reheat [], 0.20000
 Component Sizing Information, AirTerminal:SingleDuct:VAV:Reheat, OFFICE_OPEN_3_Z25_VAVTERMINAL, User-Specified Maximum Reheat Water Flow Rate [m3/s], 15.37911
 Component Sizing Information, Coil:Heating:Electric, OFFICE_OPEN_3_Z25_REHEATCOIL, User-Specified Nominal Capacity [W], 4613.73247
 Component Sizing Information, AirTerminal:SingleDuct:VAV:Reheat, STORAGE_3_Z26_VAVTERMINAL, User-Specified Maximum Air Flow Rate [m3/s], 0.15961
 Component Sizing Information, AirTerminal:SingleDuct:VAV:Reheat, STORAGE_3_Z26_VAVTERMINAL, Design Size Constant Minimum Air Flow Fraction, 0.20000
 Component Sizing Information, AirTerminal:SingleDuct:VAV:Reheat, STORAGE_3_Z26_VAVTERMINAL, User-Specified Constant Minimum Air Flow Fraction, 0.20000
 Component Sizing Information, AirTerminal:SingleDuct:VAV:Reheat, STORAGE_3_Z26_VAVTERMINAL, Design Size Minimum Air Flow Rate [m3/s], 3.19217E-002
 Component Sizing Information, AirTerminal:SingleDuct:VAV:Reheat, STORAGE_3_Z26_VAVTERMINAL, Design Size Maximum Flow per Zone Floor Area during Reheat [m3/s-m2], 9.99997E-004
 Component Sizing Information, AirTerminal:SingleDuct:VAV:Reheat, STORAGE_3_Z26_VAVTERMINAL, Design Size Maximum Flow Fraction during Reheat [], 0.20000
 Component Sizing Information, AirTerminal:SingleDuct:VAV:Reheat, STORAGE_3_Z26_VAVTERMINAL, User-Specified Maximum Reheat Water Flow Rate [m3/s], 2.55374
 Component Sizing Information, Coil:Heating:Electric, STORAGE_3_Z26_REHEATCOIL, User-Specified Nominal Capacity [W], 766.12110
 Component Sizing Information, AirTerminal:SingleDuct:VAV:Reheat, LOBBY_4_Z27_VAVTERMINAL, User-Specified Maximum Air Flow Rate [m3/s], 0.89327
 Component Sizing Information, AirTerminal:SingleDuct:VAV:Reheat, LOBBY_4_Z27_VAVTERMINAL, Design Size Constant Minimum Air Flow Fraction, 0.20000
 Component Sizing Information, AirTerminal:SingleDuct:VAV:Reheat, LOBBY_4_Z27_VAVTERMINAL, User-Specified Constant Minimum Air Flow Fraction, 0.20000
 Component Sizing Information, AirTerminal:SingleDuct:VAV:Reheat, LOBBY_4_Z27_VAVTERMINAL, Design Size Minimum Air Flow Rate [m3/s], 0.17865
 Component Sizing Information, AirTerminal:SingleDuct:VAV:Reheat, LOBBY_4_Z27_VAVTERMINAL, Design Size Maximum Flow per Zone Floor Area during Reheat [m3/s-m2], 1.00000E-003
 Component Sizing Information, AirTerminal:SingleDuct:VAV:Reheat, LOBBY_4_Z27_VAVTERMINAL, Design Size Maximum Flow Fraction during Reheat [], 0.20000
 Component Sizing Information, AirTerminal:SingleDuct:VAV:Reheat, LOBBY_4_Z27_VAVTERMINAL, User-Specified Maximum Reheat Water Flow Rate [m3/s], 14.29237
 Component Sizing Information, Coil:Heating:Electric, LOBBY_4_Z27_REHEATCOIL, User-Specified Nominal Capacity [W], 4287.71083
 Component Sizing Information, AirTerminal:SingleDuct:VAV:Reheat, CONFERENCE_4_Z28_VAVTERMINAL, User-Specified Maximum Air Flow Rate [m3/s], 0.31651
 Component Sizing Information, AirTerminal:SingleDuct:VAV:Reheat, CONFERENCE_4_Z28_VAVTERMINAL, Design Size Constant Minimum Air Flow Fraction, 0.20000
 Component Sizing Information, AirTerminal:SingleDuct:VAV:Reheat, CONFERENCE_4_Z28_VAVTERMINAL, User-Specified Constant Minimum Air Flow Fraction, 0.20000
 Component Sizing Information, AirTerminal:SingleDuct:VAV:Reheat, CONFERENCE_4_Z28_VAVTERMINAL, Design Size Minimum Air Flow Rate [m3/s], 6.33024E-002
 Component Sizing Information, AirTerminal:SingleDuct:VAV:Reheat, CONFERENCE_4_Z28_VAVTERMINAL, Design Size Maximum Flow per Zone Floor Area during Reheat [m3/s-m2], 1.00000E-003
 Component Sizing Information, AirTerminal:SingleDuct:VAV:Reheat, CONFERENCE_4_Z28_VAVTERMINAL, Design Size Maximum Flow Fraction during Reheat [], 0.20000
 Component Sizing Information, AirTerminal:SingleDuct:VAV:Reheat, CONFERENCE_4_Z28_VAVTERMINAL, User-Specified Maximum Reheat Water Flow Rate [m3/s], 5.06420
 Component Sizing Information, Coil:Heating:Electric, CONFERENCE_4_Z28_REHEATCOIL, User-Specified Nominal Capacity [W], 1519.25878
[...]
 DX Cooling Coil AHRI 2023 Standard Rating Information, Coil:Cooling:DX:SingleSpeed, CONFERENCE_3_Z22_COOLINGCOILDX, 8228.6, 39.98, 136.43, 54.18, 52.72, 37.2
 Component Sizing Information, Coil:Heating:Electric, CONFERENCE_3_Z22_HEATINGCOIL, User-Specified Nominal Capacity [W], 6848.82671
 Component Sizing Information, Fan:VariableVolume, CONFERENCE_3_Z22_SUPPLYFAN, User-Specified Maximum Flow Rate [m3/s], 0.42805
 Component Sizing Information, Fan:VariableVolume, CONFERENCE_3_Z22_SUPPLYFAN, Design Electric Power Consumption [W], 366.90143
 Component Sizing Information, Coil:Cooling:DX:SingleSpeed, BREAK_ROOM_3_Z23_COOLINGCOILDX, User-Specified Rated Air Flow Rate [m3/s], 0.35094
 Component Sizing Information, Coil:Cooling:DX:SingleSpeed, BREAK_ROOM_3_Z23_COOLINGCOILDX, User-Specified Gross Rated Total Cooling Capacity [W], 7018.72604
 Component Sizing Information, Coil:Cooling:DX:SingleSpeed, BREAK_ROOM_3_Z23_COOLINGCOILDX, User-Specified Gross Rated Sensible Heat Ratio, 0.75000
 DX Cooling Coil Standard Rating Information, Coil:Cooling:DX:SingleSpeed, BREAK_ROOM_3_Z23_COOLINGCOILDX, 6746.2, 39.98, 136.43, 54.18, 51.26, 37.2
 DX Cooling Coil AHRI 2023 Standard Rating Information, Coil:Cooling:DX:SingleSpeed, BREAK_ROOM_3_Z23_COOLINGCOILDX, 6746.2, 39.98, 136.43, 54.18, 52.72, 37.2
 Component Sizing Information, Coil:Heating:Electric, BREAK_ROOM_3_Z23_HEATINGCOIL, User-Specified Nominal Capacity [W], 5614.98084
 Component Sizing Information, Fan:VariableVolume, BREAK_ROOM_3_Z23_SUPPLYFAN, User-Specified Maximum Flow Rate [m3/s], 0.35094
 Component Sizing Information, Fan:VariableVolume, BREAK_ROOM_3_Z23_SUPPLYFAN, Design Electric Power Consumption [W], 300.80254
 Component Sizing Information, Coil:Cooling:DX:SingleSpeed, MECHANICAL_3_Z24_COOLINGCOILDX, User-Specified Rated Air Flow Rate [m3/s], 0.48882
 Component Sizing Information, Coil:Cooling:DX:SingleSpeed, MECHANICAL_3_Z24_COOLINGCOILDX, User-Specified Gross Rated Total Cooling Capacity [W], 9776.44133
 Component Sizing Information, Coil:Cooling:DX:SingleSpeed, MECHANICAL_3_Z24_COOLINGCOILDX, User-Specified Gross Rated Sensible Heat Ratio, 0.75000
 DX Cooling Coil Standard Rating Information, Coil:Cooling:DX:SingleSpeed, MECHANICAL_3_Z24_COOLINGCOILDX, 9396.9, 39.98, 136.43, 54.18, 51.26, 37.2
 DX Cooling Coil AHRI 2023 Standard Rating Information, Coil:Cooling:DX:SingleSpeed, MECHANICAL_3_Z24_COOLINGCOILDX, 9396.9, 39.98, 136.43, 54.18, 52.72, 37.2
 Component Sizing Information, Coil:Heating:Electric, MECHANICAL_3_Z24_HEATINGCOIL, User-Specified Nominal Capacity [W], 7821.15307
 Component Sizing Information, Fan:VariableVolume, MECHANICAL_3_Z24_SUPPLYFAN, User-Specified Maximum Flow Rate [m3/s], 0.48882
 Component Sizing Information, Fan:VariableVolume, MECHANICAL_3_Z24_SUPPLYFAN, Design Electric Power Consumption [W], 418.99034
 Component Sizing Information, Coil:Cooling:DX:SingleSpeed, OFFICE_OPEN_3_Z25_COOLINGCOILDX, User-Specified Rated Air Flow Rate [m3/s], 0.96119
 Component Sizing Information, Coil:Cooling:DX:SingleSpeed, OFFICE_OPEN_3_Z25_COOLINGCOILDX, User-Specified Gross Rated Total Cooling Capacity [W], 19223.88528
 Component Sizing Information, Coil:Cooling:DX:SingleSpeed, OFFICE_OPEN_3_Z25_COOLINGCOILDX, User-Specified Gross Rated Sensible Heat Ratio, 0.75000
 DX Cooling Coil Standard Rating Information, Coil:Cooling:DX:SingleSpeed, OFFICE_OPEN_3_Z25_COOLINGCOILDX, 18477.5, 39.98, 136.43, 54.18, 51.26, 37.2
 DX Cooling Coil AHRI 2023 Standard Rating Information, Coil:Cooling:DX:SingleSpeed, OFFICE_OPEN_3_Z25_COOLINGCOILDX, 18477.5, 39.98, 136.43, 54.18, 52.72, 37.2
 Component Sizing Information, Coil:Heating:Electric, OFFICE_OPEN_3_Z25_HEATINGCOIL, User-Specified Nominal Capacity [W], 15379.10823
 Component Sizing Information, Fan:VariableVolume, OFFICE_OPEN_3_Z25_SUPPLYFAN, User-Specified Maximum Flow Rate [m3/s], 0.96119
 Component Sizing Information, Fan:VariableVolume, OFFICE_OPEN_3_Z25_SUPPLYFAN, Design Electric Power Consumption [W], 823.88080
 Component Sizing Information, Coil:Cooling:DX:SingleSpeed, STORAGE_3_Z26_COOLINGCOILDX, User-Specified Rated Air Flow Rate [m3/s], 0.15961
 Component Sizing Information, Coil:Cooling:DX:SingleSpeed, STORAGE_3_Z26_COOLINGCOILDX, User-Specified Gross Rated Total Cooling Capacity [W], 3192.17124
 Component Sizing Information, Coil:Cooling:DX:SingleSpeed, STORAGE_3_Z26_COOLINGCOILDX, User-Specified Gross Rated Sensible Heat Ratio, 0.75000
 DX Cooling Coil Standard Rating Information, Coil:Cooling:DX:SingleSpeed, STORAGE_3_Z26_COOLINGCOILDX, 3068.2, 39.98, 136.43, 54.18, 51.26, 37.2
 DX Cooling Coil AHRI 2023 Standard Rating Information, Coil:Cooling:DX:SingleSpeed, STORAGE_3_Z26_COOLINGCOILDX, 3068.2, 39.98, 136.43, 54.18, 52.72, 37.2
 Component Sizing Information, Coil:Heating:Electric, STORAGE_3_Z26_HEATINGCOIL, User-Specified Nominal Capacity [W], 2553.73699
 Component Sizing Information, Fan:VariableVolume, STORAGE_3_Z26_SUPPLYFAN, User-Specified Maximum Flow Rate [m3/s], 0.15961
 Component Sizing Information, Fan:VariableVolume, STORAGE_3_Z26_SUPPLYFAN, Design Electric Power Consumption [W], 136.80734
 Component Sizing Information, Coil:Cooling:DX:SingleSpeed, LOBBY_4_Z27_COOLINGCOILDX, User-Specified Rated Air Flow Rate [m3/s], 0.89327
 Component Sizing Information, Coil:Cooling:DX:SingleSpeed, LOBBY_4_Z27_COOLINGCOILDX, User-Specified Gross Rated Total Cooling Capacity [W], 17865.46180
 Component Sizing Information, Coil:Cooling:DX:SingleSpeed, LOBBY_4_Z27_COOLINGCOILDX, User-Specified Gross Rated Sensible Heat Ratio, 0.75000
 DX Cooling Coil Standard Rating Information, Coil:Cooling:DX:SingleSpeed, LOBBY_4_Z27_COOLINGCOILDX, 17171.8, 39.98, 136.43, 54.18, 51.26, 37.2
 DX Cooling Coil AHRI 2023 Standard Rating Information, Coil:Cooling:DX:SingleSpeed, LOBBY_4_Z27_COOLINGCOILDX, 17171.8, 39.98, 136.43, 54.18, 52.72, 37.2
 Component Sizing Information, Coil:Heating:Electric, LOBBY_4_Z27_HEATINGCOIL, User-Specified Nominal Capacity [W], 14292.36944
 Component Sizing Information, Fan:VariableVolume, LOBBY_4_Z27_SUPPLYFAN, User-Specified Maximum Flow Rate [m3/s], 0.89327
 Component Sizing Information, Fan:VariableVolume, LOBBY_4_Z27_SUPPLYFAN, Design Electric Power Consumption [W], 765.66265
 Component Sizing Information, Coil:Cooling:DX:SingleSpeed, CONFERENCE_4_Z28_COOLINGCOILDX, User-Specified Rated Air Flow Rate [m3/s], 0.31651
 Component Sizing Information, Coil:Cooling:DX:SingleSpeed, CONFERENCE_4_Z28_COOLINGCOILDX, User-Specified Gross Rated Total Cooling Capacity [W], 6330.24490
 Component Sizing Information, Coil:Cooling:DX:SingleSpeed, CONFERENCE_4_Z28_COOLINGCOILDX, User-Specified Gross Rated Sensible Heat Ratio, 0.75000
 DX Cooling Coil Standard Rating Information, Coil:Cooling:DX:SingleSpeed, CONFERENCE_4_Z28_COOLINGCOILDX, 6084.5, 39.98, 136.43, 54.18, 51.26, 37.2
 DX Cooling Coil AHRI 2023 Standard Rating Information, Coil:Cooling:DX:SingleSpeed, CONFERENCE_4_Z28_COOLINGCOILDX, 6084.5, 39.98, 136.43, 54.18, 52.72, 37.2
 Component Sizing Information, Coil:Heating:Electric, CONFERENCE_4_Z28_HEATINGCOIL, User-Specified Nominal Capacity [W], 5064.19592
 Component Sizing Information, Fan:VariableVolume, CONFERENCE_4_Z28_SUPPLYFAN, User-Specified Maximum Flow Rate [m3/s], 0.31651
 Component Sizing Information, Fan:VariableVolume, CONFERENCE_4_Z28_SUPPLYFAN, Design Electric Power Consumption [W], 271.29621
 Component Sizing Information, Coil:Cooling:DX:SingleSpeed, BREAK_ROOM_4_Z29_COOLINGCOILDX, User-Specified Rated Air Flow Rate [m3/s], 0.19098
 Component Sizing Information, Coil:Cooling:DX:SingleSpeed, BREAK_ROOM_4_Z29_COOLINGCOILDX, User-Specified Gross Rated Total Cooling Capacity [W], 3819.59642
 Component Sizing Information, Coil:Cooling:DX:SingleSpeed, BREAK_ROOM_4_Z29_COOLINGCOILDX, User-Specified Gross Rated Sensible Heat Ratio, 0.75000
 DX Cooling Coil Standard Rating Information, Coil:Cooling:DX:SingleSpeed, BREAK_ROOM_4_Z29_COOLINGCOILDX, 3671.3, 39.98, 136.43, 54.18, 51.26, 37.2
 DX Cooling Coil AHRI 2023 Standard Rating Information, Coil:Cooling:DX:SingleSpeed, BREAK_ROOM_4_Z29_COOLINGCOILDX, 3671.3, 39.98, 136.43, 54.18, 52.72, 37.2
 Component Sizing Information, Coil:Heating:Electric, BREAK_ROOM_4_Z29_HEATINGCOIL, User-Specified Nominal Capacity [W], 3055.67714
 Component Sizing Information, Fan:VariableVolume, BREAK_ROOM_4_Z29_SUPPLYFAN, User-Specified Maximum Flow Rate [m3/s], 0.19098
 Component Sizing Information, Fan:VariableVolume, BREAK_ROOM_4_Z29_SUPPLYFAN, Design Electric Power Consumption [W], 163.69699
 Component Sizing Information, Coil:Cooling:DX:SingleSpeed, MECHANICAL_4_Z30_COOLINGCOILDX, User-Specified Rated Air Flow Rate [m3/s], 0.12189
 Component Sizing Information, Coil:Cooling:DX:SingleSpeed, MECHANICAL_4_Z30_COOLINGCOILDX, User-Specified Gross Rated Total Cooling Capacity [W], 2437.73579
 Component Sizing Information, Coil:Cooling:DX:SingleSpeed, MECHANICAL_4_Z30_COOLINGCOILDX, User-Specified Gross Rated Sensible Heat Ratio, 0.75000
 DX Cooling Coil Standard Rating Information, Coil:Cooling:DX:SingleSpeed, MECHANICAL_4_Z30_COOLINGCOILDX, 2343.1, 39.98, 136.43, 54.18, 51.26, 37.2
 DX Cooling Coil AHRI 2023 Standard Rating Information, Coil:Cooling:DX:SingleSpeed, MECHANICAL_4_Z30_COOLINGCOILDX, 2343.1, 39.98, 136.43, 54.18, 52.72, 37.2
 Component Sizing Information, Coil:Heating:Electric, MECHANICAL_4_Z30_HEATINGCOIL, User-Specified Nominal Capacity [W], 1950.18863
 Component Sizing Information, Fan:VariableVolume, MECHANICAL_4_Z30_SUPPLYFAN, User-Specified Maximum Flow Rate [m3/s], 0.12189
 Component Sizing Information, Fan:VariableVolume, MECHANICAL_4_Z30_SUPPLYFAN, Design Electric Power Consumption [W], 104.47439
 Component Sizing Information, Coil:Cooling:DX:SingleSpeed, OFFICE_OPEN_4_Z31_COOLINGCOILDX, User-Specified Rated Air Flow Rate [m3/s], 1.60707
 Component Sizing Information, Coil:Cooling:DX:SingleSpeed, OFFICE_OPEN_4_Z31_COOLINGCOILDX, User-Specified Gross Rated Total Cooling Capacity [W], 32141.41786
 Component Sizing Information, Coil:Cooling:DX:SingleSpeed, OFFICE_OPEN_4_Z31_COOLINGCOILDX, User-Specified Gross Rated Sensible Heat Ratio, 0.75000
 DX Cooling Coil Standard Rating Information, Coil:Cooling:DX:SingleSpeed, OFFICE_OPEN_4_Z31_COOLINGCOILDX, 30893.5, 39.98, 136.43, 54.18, 51.26, 37.2
 DX Cooling Coil AHRI 2023 Standard Rating Information, Coil:Cooling:DX:SingleSpeed, OFFICE_OPEN_4_Z31_COOLINGCOILDX, 30893.5, 39.98, 136.43, 54.18, 52.72, 37.2
 Component Sizing Information, Coil:Heating:Electric, OFFICE_OPEN_4_Z31_HEATINGCOIL, User-Specified Nominal Capacity [W], 25713.13429
 Component Sizing Information, Fan:VariableVolume, OFFICE_OPEN_4_Z31_SUPPLYFAN, User-Specified Maximum Flow Rate [m3/s], 1.60707
 Component Sizing Information, Fan:VariableVolume, OFFICE_OPEN_4_Z31_SUPPLYFAN, Design Electric Power Consumption [W], 1377.48934
 Component Sizing Information, Coil:Cooling:DX:SingleSpeed, OFFICE_PRIVATE_4_Z32_COOLINGCOILDX, User-Specified Rated Air Flow Rate [m3/s], 0.17983
 Component Sizing Information, Coil:Cooling:DX:SingleSpeed, OFFICE_PRIVATE_4_Z32_COOLINGCOILDX, User-Specified Gross Rated Total Cooling Capacity [W], 3596.68578
 Component Sizing Information, Coil:Cooling:DX:SingleSpeed, OFFICE_PRIVATE_4_Z32_COOLINGCOILDX, User-Specified Gross Rated Sensible Heat Ratio, 0.75000
 DX Cooling Coil Standard Rating Information, Coil:Cooling:DX:SingleSpeed, OFFICE_PRIVATE_4_Z32_COOLINGCOILDX, 3457.0, 39.98, 136.43, 54.18, 51.26, 37.2
 DX Cooling Coil AHRI 2023 Standard Rating Information, Coil:Cooling:DX:SingleSpeed, OFFICE_PRIVATE_4_Z32_COOLINGCOILDX, 3457.0, 39.98, 136.43, 54.18, 52.72, 37.2
 Component Sizing Information, Coil:Heating:Electric, OFFICE_PRIVATE_4_Z32_HEATINGCOIL, User-Specified Nominal Capacity [W], 2877.34862
 Component Sizing Information, Fan:VariableVolume, OFFICE_PRIVATE_4_Z32_SUPPLYFAN, User-Specified Maximum Flow Rate [m3/s], 0.17983
 Component Sizing Information, Fan:VariableVolume, OFFICE_PRIVATE_4_Z32_SUPPLYFAN, Design Electric Power Consumption [W], 154.14368
 Component Sizing Information, Coil:Cooling:DX:SingleSpeed, STORAGE_4_Z33_COOLINGCOILDX, User-Specified Rated Air Flow Rate [m3/s], 0.16415
 Component Sizing Information, Coil:Cooling:DX:SingleSpeed, STORAGE_4_Z33_COOLINGCOILDX, User-Specified Gross Rated Total Cooling Capacity [W], 3283.09266
 Component Sizing Information, Coil:Cooling:DX:SingleSpeed, STORAGE_4_Z33_COOLINGCOILDX, User-Specified Gross Rated Sensible Heat Ratio, 0.75000
 DX Cooling Coil Standard Rating Information, Coil:Cooling:DX:SingleSpeed, STORAGE_4_Z33_COOLINGCOILDX, 3155.6, 39.98, 136.43, 54.18, 51.26, 37.2
 DX Cooling Coil AHRI 2023 Standard Rating Information, Coil:Cooling:DX:SingleSpeed, STORAGE_4_Z33_COOLINGCOILDX, 3155.6, 39.98, 136.43, 54.18, 52.72, 37.2
 Component Sizing Information, Coil:Heating:Electric, STORAGE_4_Z33_HEATINGCOIL, User-Specified Nominal Capacity [W], 2626.47413
 Component Sizing Information, Fan:VariableVolume, STORAGE_4_Z33_SUPPLYFAN, User-Specified Maximum Flow Rate [m3/s], 0.16415
 Component Sizing Information, Fan:VariableVolume, STORAGE_4_Z33_SUPPLYFAN, Design Electric Power Consumption [W], 140.70397
! <Environment>,Environment Name,Environment Type, Start Date, End Date, Start DayOfWeek, Duration {#days}, Source:Start DayOfWeek,  Use Daylight Saving, Use Holidays, Apply Weekend Holiday Rule,  Use Rain Values, Use Snow Values, Sky Temperature Model
! <Environment:Special Days>, Special Day Name, Special Day Type, Source, Start Date, Duration {#days}
! <Environment:Daylight Saving>, Daylight Saving Indicator, Source, Start Date, End Date
! <Environment:WarmupDays>, NumberofWarmupDays
Environment,YEAR ROUND RUN PERIOD,WeatherFileRunPeriod,01/01/2017,12/31/2017,Sunday,365,Use RunPeriod Specified Day,Yes,Yes,Yes,Yes,Yes,Clark and Allen
Environment:Daylight Saving,No,
Environment:WarmupDays,  7
! <Warmup Convergence Information>,Zone Name,Environment Type/Name,Average Warmup Temperature Difference {deltaC},Std Dev Warmup Temperature Difference {deltaC},Max Temperature Pass/Fail Convergence,Min Temperature Pass/Fail Convergence,Average Warmup Load Difference {W},Std Dev Warmup Load Difference {W},Heating Load Pass/Fail Convergence,Cooling Load Pass/Fail Convergence
 Warmup Convergence Information,LOBBY_0,RunPeriod: YEAR ROUND RUN PERIOD,6.1216637490E-002,7.2939726664E-002,Pass,Pass,1.3058972570E-002,1.6773488462E-002,Pass,Pass
 Warmup Convergence Information,CONFERENCE_0,RunPeriod: YEAR ROUND RUN PERIOD,0.1148365627,0.1370127261,Pass,Pass,1.6305443742E-002,2.0708930375E-002,Pass,Pass
 Warmup Convergence Information,BREAK_ROOM_0,RunPeriod: YEAR ROUND RUN PERIOD,9.9952004379E-002,0.1207934959,Pass,Pass,1.8064740117E-002,2.2447629822E-002,Pass,Pass
 Warmup Convergence Information,MECHANICAL_0,RunPeriod: YEAR ROUND RUN PERIOD,0.1185054130,0.1375269781,Pass,Pass,1.0965467910E-002,1.3238915999E-002,Pass,Pass
 Warmup Convergence Information,OFFICE_OPEN_0,RunPeriod: YEAR ROUND RUN PERIOD,4.2729340006E-002,5.0335116379E-002,Pass,Pass,1.7806520902E-002,2.1448578508E-002,Pass,Pass
 Warmup Convergence Information,OFFICE_PRIVATE_0,RunPeriod: YEAR ROUND RUN PERIOD,0.1334298859,0.1533190065,Pass,Pass,1.6175632532E-002,1.9343582978E-002,Pass,Pass
 Warmup Convergence Information,STORAGE_0,RunPeriod: YEAR ROUND RUN PERIOD,0.1918336862,0.2118063748,Pass,Pass,1.6689889425E-002,1.9036639324E-002,Pass,Pass
 Warmup Convergence Information,LOBBY_1,RunPeriod: YEAR ROUND RUN PERIOD,9.1215171588E-002,0.1048358645,Pass,Pass,1.4742880456E-002,1.7200971052E-002,Pass,Pass
 Warmup Convergence Information,CONFERENCE_1,RunPeriod: YEAR ROUND RUN PERIOD,9.2256892944E-002,0.1067628527,Pass,Pass,1.6605288235E-002,1.9562556069E-002,Pass,Pass
 Warmup Convergence Information,BREAK_ROOM_1,RunPeriod: YEAR ROUND RUN PERIOD,9.9170278599E-002,0.1269371252,Pass,Pass,1.7001283636E-002,2.2100688168E-002,Pass,Pass
 Warmup Convergence Information,MECHANICAL_1,RunPeriod: YEAR ROUND RUN PERIOD,8.3790558560E-002,9.7903780478E-002,Pass,Pass,8.3989355619E-003,1.0168758175E-002,Pass,Pass
 Warmup Convergence Information,OFFICE_OPEN_1,RunPeriod: YEAR ROUND RUN PERIOD,6.3655602916E-002,8.0370912401E-002,Pass,Pass,1.3470964237E-002,1.7211482102E-002,Pass,Pass
 Warmup Convergence Information,OFFICE_PRIVATE_1,RunPeriod: YEAR ROUND RUN PERIOD,0.1889382455,0.2165748763,Pass,Pass,1.9560559942E-002,2.3108973404E-002,Pass,Pass
 Warmup Convergence Information,STORAGE_1,RunPeriod: YEAR ROUND RUN PERIOD,0.1424976651,0.1607312001,Pass,Pass,1.3198505920E-002,1.5201258389E-002,Pass,Pass
 Warmup Convergence Information,LOBBY_2,RunPeriod: YEAR ROUND RUN PERIOD,7.8617667764E-002,0.1007059739,Pass,Pass,1.1136258023E-002,1.4776623021E-002,Pass,Pass
 Warmup Convergence Information,CONFERENCE_2,RunPeriod: YEAR ROUND RUN PERIOD,0.1445047019,0.1679483611,Pass,Pass,1.7732874718E-002,2.1156506593E-002,Pass,Pass
 Warmup Convergence Information,BREAK_ROOM_2,RunPeriod: YEAR ROUND RUN PERIOD,0.1009878839,0.1196568158,Pass,Pass,1.7048142422E-002,2.0654522137E-002,Pass,Pass
 Warmup Convergence Information,MECHANICAL_2,RunPeriod: YEAR ROUND RUN PERIOD,9.9916143818E-002,0.1205829335,Pass,Pass,9.5978230742E-003,1.1730966192E-002,Pass,Pass
 Warmup Convergence Information,OFFICE_OPEN_2,RunPeriod: YEAR ROUND RUN PERIOD,4.1596877064E-002,4.7367688078E-002,Pass,Pass,1.5601918731E-002,1.8018799137E-002,Pass,Pass
 Warmup Convergence Information,OFFICE_PRIVATE_2,RunPeriod: YEAR ROUND RUN PERIOD,0.1722922550,0.2002899268,Pass,Pass,1.7166889927E-002,2.1648500928E-002,Pass,Pass
 Warmup Convergence Information,STORAGE_2,RunPeriod: YEAR ROUND RUN PERIOD,0.1238956773,0.1458829497,Pass,Pass,1.1306894374E-002,1.4111639956E-002,Pass,Pass
 Warmup Convergence Information,CONFERENCE_3,RunPeriod: YEAR ROUND RUN PERIOD,9.1531201353E-002,0.1089043018,Pass,Pass,1.5939229552E-002,1.9330694573E-002,Pass,Pass
 Warmup Convergence Information,BREAK_ROOM_3,RunPeriod: YEAR ROUND RUN PERIOD,0.1005074831,0.1181740247,Pass,Pass,1.7204293806E-002,2.0667021831E-002,Pass,Pass
 Warmup Convergence Information,MECHANICAL_3,RunPeriod: YEAR ROUND RUN PERIOD,8.6972742090E-002,9.7546765573E-002,Pass,Pass,9.1205693899E-003,1.0328482832E-002,Pass,Pass
 Warmup Convergence Information,OFFICE_OPEN_3,RunPeriod: YEAR ROUND RUN PERIOD,6.3539091264E-002,7.3481975868E-002,Pass,Pass,1.4760151815E-002,1.7354345820E-002,Pass,Pass
 Warmup Convergence Information,STORAGE_3,RunPeriod: YEAR ROUND RUN PERIOD,0.1432377421,0.1605574645,Pass,Pass,1.2822330589E-002,1.4634772078E-002,Pass,Pass
 Warmup Convergence Information,LOBBY_4,RunPeriod: YEAR ROUND RUN PERIOD,6.5726624210E-002,7.6723813152E-002,Pass,Pass,1.3008877354E-002,1.5412579062E-002,Pass,Pass
 Warmup Convergence Information,CONFERENCE_4,RunPeriod: YEAR ROUND RUN PERIOD,0.1037484201,0.1200859150,Pass,Pass,1.6031623946E-002,1.8855851770E-002,Pass,Pass
 Warmup Convergence Information,BREAK_ROOM_4,RunPeriod: YEAR ROUND RUN PERIOD,0.1319131141,0.1570914222,Pass,Pass,1.6951250654E-002,2.0719119394E-002,Pass,Pass
 Warmup Convergence Information,MECHANICAL_4,RunPeriod: YEAR ROUND RUN PERIOD,0.1655044630,0.1878463103,Pass,Pass,1.4028929052E-002,1.6258042841E-002,Pass,Pass
 Warmup Convergence Information,OFFICE_OPEN_4,RunPeriod: YEAR ROUND RUN PERIOD,4.9811208109E-002,5.8126263396E-002,Pass,Pass,1.4734411226E-002,1.7458712349E-002,Pass,Pass
 Warmup Convergence Information,OFFICE_PRIVATE_4,RunPeriod: YEAR ROUND RUN PERIOD,0.1376674164,0.1637477401,Pass,Pass,1.6103996251E-002,1.9689676991E-002,Pass,Pass
 Warmup Convergence Information,STORAGE_4,RunPeriod: YEAR ROUND RUN PERIOD,0.1447248839,0.1632731498,Pass,Pass,1.3075998923E-002,1.5064856056E-002,Pass,Pass
! <Program Control Information:Threads/Parallel Sims>, Threading Supported,Maximum Number of Threads, Env Set Threads (OMP_NUM_THREADS), EP Env Set Threads (EP_OMP_NUM_THREADS), IDF Set Threads, Number of Threads Used (Interior Radiant Exchange), Number Nominal Surfaces, Number Parallel Sims
Program Control:Threads/Parallel Sims, No,1, N/A, N/A, N/A, N/A, N/A, N/A
End of Data
