Program Version,EnergyPlus, Version 24.2.0-94a887817b, YMD=2025.10.31 22:39
! This file shows details about the branches, nodes, and other
! elements of the flow connections.
! This file is intended for use in "debugging" potential problems
! that may also be detected by the program, but may be more easily
! identified by "eye".
! This file is also intended to support software which draws a
! schematic diagram of the HVAC system.
! ===============================================================
! #Nodes,<Number of Unique Nodes>
 #Nodes,363
! <Node>,<NodeNumber>,<Node Name>,<Node Fluid Type>,<# Times Node Referenced After Definition>
 Node,1,LOBBY_0_Z1_ADUOUTLET,Air,4
 Node,2,CONFERENCE_0_Z2_ADUOUTLET,Air,4
 Node,3,BREAK_ROOM_0_Z3_ADUOUTLET,Air,4
 Node,4,MECHANICAL_0_Z4_ADUOUTLET,Air,4
 Node,5,OFFICE_OPEN_0_Z5_ADUOUTLET,Air,4
 Node,6,OFFICE_PRIVATE_0_Z6_ADUOUTLET,Air,4
 Node,7,STORAGE_0_Z7_ADUOUTLET,Air,4
 Node,8,LOBBY_1_Z8_ADUOUTLET,Air,4
 Node,9,CONFERENCE_1_Z9_ADUOUTLET,Air,4
 Node,10,BREAK_ROOM_1_Z10_ADUOUTLET,Air,4
 Node,11,MECHANICAL_1_Z11_ADUOUTLET,Air,4
 Node,12,OFFICE_OPEN_1_Z12_ADUOUTLET,Air,4
 Node,13,OFFICE_PRIVATE_1_Z13_ADUOUTLET,Air,4
 Node,14,STORAGE_1_Z14_ADUOUTLET,Air,4
 Node,15,LOBBY_2_Z15_ADUOUTLET,Air,4
 Node,16,CONFERENCE_2_Z16_ADUOUTLET,Air,4
 Node,17,BREAK_ROOM_2_Z17_ADUOUTLET,Air,4
 Node,18,MECHANICAL_2_Z18_ADUOUTLET,Air,4
 Node,19,OFFICE_OPEN_2_Z19_ADUOUTLET,Air,4
 Node,20,OFFICE_PRIVATE_2_Z20_ADUOUTLET,Air,4
 Node,21,STORAGE_2_Z21_ADUOUTLET,Air,4
 Node,22,CONFERENCE_3_Z22_ADUOUTLET,Air,4
 Node,23,BREAK_ROOM_3_Z23_ADUOUTLET,Air,4
 Node,24,MECHANICAL_3_Z24_ADUOUTLET,Air,4
 Node,25,OFFICE_OPEN_3_Z25_ADUOUTLET,Air,4
 Node,26,STORAGE_3_Z26_ADUOUTLET,Air,4
 Node,27,LOBBY_4_Z27_ADUOUTLET,Air,4
 Node,28,CONFERENCE_4_Z28_ADUOUTLET,Air,4
 Node,29,BREAK_ROOM_4_Z29_ADUOUTLET,Air,4
 Node,30,MECHANICAL_4_Z30_ADUOUTLET,Air,4
 Node,31,OFFICE_OPEN_4_Z31_ADUOUTLET,Air,4
 Node,32,OFFICE_PRIVATE_4_Z32_ADUOUTLET,Air,4
 Node,33,STORAGE_4_Z33_ADUOUTLET,Air,4
 Node,34,LOBBY_0_Z1_SUPPLYINLET,Air,3
 Node,35,LOBBY_0_Z1_COOLC-HEATCNODE,Air,6
 Node,36,LOBBY_0_Z1_HEATC-FANNODE,Air,5
 Node,37,LOBBY_0_Z1_SUPPLYEQUIPMENTOUTLETNODE,Air,2
 Node,38,CONFERENCE_0_Z2_SUPPLYINLET,Air,3
 Node,39,CONFERENCE_0_Z2_COOLC-HEATCNODE,Air,6
 Node,40,CONFERENCE_0_Z2_HEATC-FANNODE,Air,5
 Node,41,CONFERENCE_0_Z2_SUPPLYEQUIPMENTOUTLETNODE,Air,2
 Node,42,BREAK_ROOM_0_Z3_SUPPLYINLET,Air,3
 Node,43,BREAK_ROOM_0_Z3_COOLC-HEATCNODE,Air,6
 Node,44,BREAK_ROOM_0_Z3_HEATC-FANNODE,Air,5
 Node,45,BREAK_ROOM_0_Z3_SUPPLYEQUIPMENTOUTLETNODE,Air,2
 Node,46,MECHANICAL_0_Z4_SUPPLYINLET,Air,3
 Node,47,MECHANICAL_0_Z4_COOLC-HEATCNODE,Air,6
 Node,48,MECHANICAL_0_Z4_HEATC-FANNODE,Air,5
 Node,49,MECHANICAL_0_Z4_SUPPLYEQUIPMENTOUTLETNODE,Air,2
 Node,50,OFFICE_OPEN_0_Z5_SUPPLYINLET,Air,3
 Node,51,OFFICE_OPEN_0_Z5_COOLC-HEATCNODE,Air,6
 Node,52,OFFICE_OPEN_0_Z5_HEATC-FANNODE,Air,5
 Node,53,OFFICE_OPEN_0_Z5_SUPPLYEQUIPMENTOUTLETNODE,Air,2
 Node,54,OFFICE_PRIVATE_0_Z6_SUPPLYINLET,Air,3
 Node,55,OFFICE_PRIVATE_0_Z6_COOLC-HEATCNODE,Air,6
 Node,56,OFFICE_PRIVATE_0_Z6_HEATC-FANNODE,Air,5
 Node,57,OFFICE_PRIVATE_0_Z6_SUPPLYEQUIPMENTOUTLETNODE,Air,2
 Node,58,STORAGE_0_Z7_SUPPLYINLET,Air,3
 Node,59,STORAGE_0_Z7_COOLC-HEATCNODE,Air,6
 Node,60,STORAGE_0_Z7_HEATC-FANNODE,Air,5
 Node,61,STORAGE_0_Z7_SUPPLYEQUIPMENTOUTLETNODE,Air,2
 Node,62,LOBBY_1_Z8_SUPPLYINLET,Air,3
 Node,63,LOBBY_1_Z8_COOLC-HEATCNODE,Air,6
 Node,64,LOBBY_1_Z8_HEATC-FANNODE,Air,5
 Node,65,LOBBY_1_Z8_SUPPLYEQUIPMENTOUTLETNODE,Air,2
 Node,66,CONFERENCE_1_Z9_SUPPLYINLET,Air,3
 Node,67,CONFERENCE_1_Z9_COOLC-HEATCNODE,Air,6
 Node,68,CONFERENCE_1_Z9_HEATC-FANNODE,Air,5
 Node,69,CONFERENCE_1_Z9_SUPPLYEQUIPMENTOUTLETNODE,Air,2
 Node,70,BREAK_ROOM_1_Z10_SUPPLYINLET,Air,3
 Node,71,BREAK_ROOM_1_Z10_COOLC-HEATCNODE,Air,6
 Node,72,BREAK_ROOM_1_Z10_HEATC-FANNODE,Air,5
 Node,73,BREAK_ROOM_1_Z10_SUPPLYEQUIPMENTOUTLETNODE,Air,2
 Node,74,MECHANICAL_1_Z11_SUPPLYINLET,Air,3
 Node,75,MECHANICAL_1_Z11_COOLC-HEATCNODE,Air,6
 Node,76,MECHANICAL_1_Z11_HEATC-FANNODE,Air,5
 Node,77,MECHANICAL_1_Z11_SUPPLYEQUIPMENTOUTLETNODE,Air,2
 Node,78,OFFICE_OPEN_1_Z12_SUPPLYINLET,Air,3
 Node,79,OFFICE_OPEN_1_Z12_COOLC-HEATCNODE,Air,6
 Node,80,OFFICE_OPEN_1_Z12_HEATC-FANNODE,Air,5
 Node,81,OFFICE_OPEN_1_Z12_SUPPLYEQUIPMENTOUTLETNODE,Air,2
 Node,82,OFFICE_PRIVATE_1_Z13_SUPPLYINLET,Air,3
 Node,83,OFFICE_PRIVATE_1_Z13_COOLC-HEATCNODE,Air,6
 Node,84,OFFICE_PRIVATE_1_Z13_HEATC-FANNODE,Air,5
 Node,85,OFFICE_PRIVATE_1_Z13_SUPPLYEQUIPMENTOUTLETNODE,Air,2
 Node,86,STORAGE_1_Z14_SUPPLYINLET,Air,3
 Node,87,STORAGE_1_Z14_COOLC-HEATCNODE,Air,6
 Node,88,STORAGE_1_Z14_HEATC-FANNODE,Air,5
 Node,89,STORAGE_1_Z14_SUPPLYEQUIPMENTOUTLETNODE,Air,2
 Node,90,LOBBY_2_Z15_SUPPLYINLET,Air,3
 Node,91,LOBBY_2_Z15_COOLC-HEATCNODE,Air,6
 Node,92,LOBBY_2_Z15_HEATC-FANNODE,Air,5
 Node,93,LOBBY_2_Z15_SUPPLYEQUIPMENTOUTLETNODE,Air,2
 Node,94,CONFERENCE_2_Z16_SUPPLYINLET,Air,3
 Node,95,CONFERENCE_2_Z16_COOLC-HEATCNODE,Air,6
 Node,96,CONFERENCE_2_Z16_HEATC-FANNODE,Air,5
 Node,97,CONFERENCE_2_Z16_SUPPLYEQUIPMENTOUTLETNODE,Air,2
 Node,98,BREAK_ROOM_2_Z17_SUPPLYINLET,Air,3
 Node,99,BREAK_ROOM_2_Z17_COOLC-HEATCNODE,Air,6
 Node,100,BREAK_ROOM_2_Z17_HEATC-FANNODE,Air,5
 Node,101,BREAK_ROOM_2_Z17_SUPPLYEQUIPMENTOUTLETNODE,Air,2
 Node,102,MECHANICAL_2_Z18_SUPPLYINLET,Air,3
 Node,103,MECHANICAL_2_Z18_COOLC-HEATCNODE,Air,6
 Node,104,MECHANICAL_2_Z18_HEATC-FANNODE,Air,5
 Node,105,MECHANICAL_2_Z18_SUPPLYEQUIPMENTOUTLETNODE,Air,2
 Node,106,OFFICE_OPEN_2_Z19_SUPPLYINLET,Air,3
 Node,107,OFFICE_OPEN_2_Z19_COOLC-HEATCNODE,Air,6
 Node,108,OFFICE_OPEN_2_Z19_HEATC-FANNODE,Air,5
 Node,109,OFFICE_OPEN_2_Z19_SUPPLYEQUIPMENTOUTLETNODE,Air,2
 Node,110,OFFICE_PRIVATE_2_Z20_SUPPLYINLET,Air,3
 Node,111,OFFICE_PRIVATE_2_Z20_COOLC-HEATCNODE,Air,6
 Node,112,OFFICE_PRIVATE_2_Z20_HEATC-FANNODE,Air,5
 Node,113,OFFICE_PRIVATE_2_Z20_SUPPLYEQUIPMENTOUTLETNODE,Air,2
 Node,114,STORAGE_2_Z21_SUPPLYINLET,Air,3
 Node,115,STORAGE_2_Z21_COOLC-HEATCNODE,Air,6
 Node,116,STORAGE_2_Z21_HEATC-FANNODE,Air,5
 Node,117,STORAGE_2_Z21_SUPPLYEQUIPMENTOUTLETNODE,Air,2
 Node,118,CONFERENCE_3_Z22_SUPPLYINLET,Air,3
 Node,119,CONFERENCE_3_Z22_COOLC-HEATCNODE,Air,6
 Node,120,CONFERENCE_3_Z22_HEATC-FANNODE,Air,5
 Node,121,CONFERENCE_3_Z22_SUPPLYEQUIPMENTOUTLETNODE,Air,2
 Node,122,BREAK_ROOM_3_Z23_SUPPLYINLET,Air,3
 Node,123,BREAK_ROOM_3_Z23_COOLC-HEATCNODE,Air,6
 Node,124,BREAK_ROOM_3_Z23_HEATC-FANNODE,Air,5
 Node,125,BREAK_ROOM_3_Z23_SUPPLYEQUIPMENTOUTLETNODE,Air,2
 Node,126,MECHANICAL_3_Z24_SUPPLYINLET,Air,3
 Node,127,MECHANICAL_3_Z24_COOLC-HEATCNODE,Air,6
 Node,128,MECHANICAL_3_Z24_HEATC-FANNODE,Air,5
 Node,129,MECHANICAL_3_Z24_SUPPLYEQUIPMENTOUTLETNODE,Air,2
 Node,130,OFFICE_OPEN_3_Z25_SUPPLYINLET,Air,3
 Node,131,OFFICE_OPEN_3_Z25_COOLC-HEATCNODE,Air,6
 Node,132,OFFICE_OPEN_3_Z25_HEATC-FANNODE,Air,5
 Node,133,OFFICE_OPEN_3_Z25_SUPPLYEQUIPMENTOUTLETNODE,Air,2
 Node,134,STORAGE_3_Z26_SUPPLYINLET,Air,3
 Node,135,STORAGE_3_Z26_COOLC-HEATCNODE,Air,6
 Node,136,STORAGE_3_Z26_HEATC-FANNODE,Air,5
 Node,137,STORAGE_3_Z26_SUPPLYEQUIPMENTOUTLETNODE,Air,2
 Node,138,LOBBY_4_Z27_SUPPLYINLET,Air,3
 Node,139,LOBBY_4_Z27_COOLC-HEATCNODE,Air,6
 Node,140,LOBBY_4_Z27_HEATC-FANNODE,Air,5
 Node,141,LOBBY_4_Z27_SUPPLYEQUIPMENTOUTLETNODE,Air,2
 Node,142,CONFERENCE_4_Z28_SUPPLYINLET,Air,3
 Node,143,CONFERENCE_4_Z28_COOLC-HEATCNODE,Air,6
 Node,144,CONFERENCE_4_Z28_HEATC-FANNODE,Air,5
 Node,145,CONFERENCE_4_Z28_SUPPLYEQUIPMENTOUTLETNODE,Air,2
 Node,146,BREAK_ROOM_4_Z29_SUPPLYINLET,Air,3
 Node,147,BREAK_ROOM_4_Z29_COOLC-HEATCNODE,Air,6
 Node,148,BREAK_ROOM_4_Z29_HEATC-FANNODE,Air,5
 Node,149,BREAK_ROOM_4_Z29_SUPPLYEQUIPMENTOUTLETNODE,Air,2
 Node,150,MECHANICAL_4_Z30_SUPPLYINLET,Air,3
 Node,151,MECHANICAL_4_Z30_COOLC-HEATCNODE,Air,6
 Node,152,MECHANICAL_4_Z30_HEATC-FANNODE,Air,5
 Node,153,MECHANICAL_4_Z30_SUPPLYEQUIPMENTOUTLETNODE,Air,2
 Node,154,OFFICE_OPEN_4_Z31_SUPPLYINLET,Air,3
 Node,155,OFFICE_OPEN_4_Z31_COOLC-HEATCNODE,Air,6
 Node,156,OFFICE_OPEN_4_Z31_HEATC-FANNODE,Air,5
 Node,157,OFFICE_OPEN_4_Z31_SUPPLYEQUIPMENTOUTLETNODE,Air,2
 Node,158,OFFICE_PRIVATE_4_Z32_SUPPLYINLET,Air,3
 Node,159,OFFICE_PRIVATE_4_Z32_COOLC-HEATCNODE,Air,6
 Node,160,OFFICE_PRIVATE_4_Z32_HEATC-FANNODE,Air,5
 Node,161,OFFICE_PRIVATE_4_Z32_SUPPLYEQUIPMENTOUTLETNODE,Air,2
 Node,162,STORAGE_4_Z33_SUPPLYINLET,Air,3
 Node,163,STORAGE_4_Z33_COOLC-HEATCNODE,Air,6
 Node,164,STORAGE_4_Z33_HEATC-FANNODE,Air,5
 Node,165,STORAGE_4_Z33_SUPPLYEQUIPMENTOUTLETNODE,Air,2
 Node,166,LOBBY_0 AIR NODE,Air,0
 Node,167,LOBBY_0_Z1_RETURNAIR,Air,1
 Node,168,CONFERENCE_0 AIR NODE,Air,0
 Node,169,CONFERENCE_0_Z2_RETURNAIR,Air,1
 Node,170,BREAK_ROOM_0 AIR NODE,Air,0
 Node,171,BREAK_ROOM_0_Z3_RETURNAIR,Air,1
 Node,172,MECHANICAL_0 AIR NODE,Air,0
 Node,173,MECHANICAL_0_Z4_RETURNAIR,Air,1
 Node,174,OFFICE_OPEN_0 AIR NODE,Air,0
 Node,175,OFFICE_OPEN_0_Z5_RETURNAIR,Air,1
 Node,176,OFFICE_PRIVATE_0 AIR NODE,Air,0
 Node,177,OFFICE_PRIVATE_0_Z6_RETURNAIR,Air,1
 Node,178,STORAGE_0 AIR NODE,Air,0
 Node,179,STORAGE_0_Z7_RETURNAIR,Air,1
 Node,180,LOBBY_1 AIR NODE,Air,0
 Node,181,LOBBY_1_Z8_RETURNAIR,Air,1
 Node,182,CONFERENCE_1 AIR NODE,Air,0
 Node,183,CONFERENCE_1_Z9_RETURNAIR,Air,1
 Node,184,BREAK_ROOM_1 AIR NODE,Air,0
 Node,185,BREAK_ROOM_1_Z10_RETURNAIR,Air,1
 Node,186,MECHANICAL_1 AIR NODE,Air,0
 Node,187,MECHANICAL_1_Z11_RETURNAIR,Air,1
 Node,188,OFFICE_OPEN_1 AIR NODE,Air,0
 Node,189,OFFICE_OPEN_1_Z12_RETURNAIR,Air,1
 Node,190,OFFICE_PRIVATE_1 AIR NODE,Air,0
 Node,191,OFFICE_PRIVATE_1_Z13_RETURNAIR,Air,1
 Node,192,STORAGE_1 AIR NODE,Air,0
 Node,193,STORAGE_1_Z14_RETURNAIR,Air,1
 Node,194,LOBBY_2 AIR NODE,Air,0
 Node,195,LOBBY_2_Z15_RETURNAIR,Air,1
 Node,196,CONFERENCE_2 AIR NODE,Air,0
 Node,197,CONFERENCE_2_Z16_RETURNAIR,Air,1
 Node,198,BREAK_ROOM_2 AIR NODE,Air,0
 Node,199,BREAK_ROOM_2_Z17_RETURNAIR,Air,1
 Node,200,MECHANICAL_2 AIR NODE,Air,0
 Node,201,MECHANICAL_2_Z18_RETURNAIR,Air,1
 Node,202,OFFICE_OPEN_2 AIR NODE,Air,0
 Node,203,OFFICE_OPEN_2_Z19_RETURNAIR,Air,1
 Node,204,OFFICE_PRIVATE_2 AIR NODE,Air,0
 Node,205,OFFICE_PRIVATE_2_Z20_RETURNAIR,Air,1
 Node,206,STORAGE_2 AIR NODE,Air,0
 Node,207,STORAGE_2_Z21_RETURNAIR,Air,1
 Node,208,CONFERENCE_3 AIR NODE,Air,0
 Node,209,CONFERENCE_3_Z22_RETURNAIR,Air,1
 Node,210,BREAK_ROOM_3 AIR NODE,Air,0
 Node,211,BREAK_ROOM_3_Z23_RETURNAIR,Air,1
 Node,212,MECHANICAL_3 AIR NODE,Air,0
 Node,213,MECHANICAL_3_Z24_RETURNAIR,Air,1
 Node,214,OFFICE_OPEN_3 AIR NODE,Air,0
 Node,215,OFFICE_OPEN_3_Z25_RETURNAIR,Air,1
 Node,216,STORAGE_3 AIR NODE,Air,0
 Node,217,STORAGE_3_Z26_RETURNAIR,Air,1
 Node,218,LOBBY_4 AIR NODE,Air,0
 Node,219,LOBBY_4_Z27_RETURNAIR,Air,1
 Node,220,CONFERENCE_4 AIR NODE,Air,0
 Node,221,CONFERENCE_4_Z28_RETURNAIR,Air,1
 Node,222,BREAK_ROOM_4 AIR NODE,Air,0
 Node,223,BREAK_ROOM_4_Z29_RETURNAIR,Air,1
 Node,224,MECHANICAL_4 AIR NODE,Air,0
 Node,225,MECHANICAL_4_Z30_RETURNAIR,Air,1
 Node,226,OFFICE_OPEN_4 AIR NODE,Air,0
 Node,227,OFFICE_OPEN_4_Z31_RETURNAIR,Air,1
 Node,228,OFFICE_PRIVATE_4 AIR NODE,Air,0
 Node,229,OFFICE_PRIVATE_4_Z32_RETURNAIR,Air,1
 Node,230,STORAGE_4 AIR NODE,Air,0
 Node,231,STORAGE_4_Z33_RETURNAIR,Air,1
 Node,232,LOBBY_0_Z1_ZONEEQUIPMENTINLET,Air,2
 Node,233,CONFERENCE_0_Z2_ZONEEQUIPMENTINLET,Air,2
 Node,234,BREAK_ROOM_0_Z3_ZONEEQUIPMENTINLET,Air,2
 Node,235,MECHANICAL_0_Z4_ZONEEQUIPMENTINLET,Air,2
 Node,236,OFFICE_OPEN_0_Z5_ZONEEQUIPMENTINLET,Air,2
 Node,237,OFFICE_PRIVATE_0_Z6_ZONEEQUIPMENTINLET,Air,2
 Node,238,STORAGE_0_Z7_ZONEEQUIPMENTINLET,Air,2
 Node,239,LOBBY_1_Z8_ZONEEQUIPMENTINLET,Air,2
 Node,240,CONFERENCE_1_Z9_ZONEEQUIPMENTINLET,Air,2
 Node,241,BREAK_ROOM_1_Z10_ZONEEQUIPMENTINLET,Air,2
 Node,242,MECHANICAL_1_Z11_ZONEEQUIPMENTINLET,Air,2
 Node,243,OFFICE_OPEN_1_Z12_ZONEEQUIPMENTINLET,Air,2
 Node,244,OFFICE_PRIVATE_1_Z13_ZONEEQUIPMENTINLET,Air,2
 Node,245,STORAGE_1_Z14_ZONEEQUIPMENTINLET,Air,2
 Node,246,LOBBY_2_Z15_ZONEEQUIPMENTINLET,Air,2
 Node,247,CONFERENCE_2_Z16_ZONEEQUIPMENTINLET,Air,2
 Node,248,BREAK_ROOM_2_Z17_ZONEEQUIPMENTINLET,Air,2
 Node,249,MECHANICAL_2_Z18_ZONEEQUIPMENTINLET,Air,2
 Node,250,OFFICE_OPEN_2_Z19_ZONEEQUIPMENTINLET,Air,2
 Node,251,OFFICE_PRIVATE_2_Z20_ZONEEQUIPMENTINLET,Air,2
 Node,252,STORAGE_2_Z21_ZONEEQUIPMENTINLET,Air,2
 Node,253,CONFERENCE_3_Z22_ZONEEQUIPMENTINLET,Air,2
 Node,254,BREAK_ROOM_3_Z23_ZONEEQUIPMENTINLET,Air,2
 Node,255,MECHANICAL_3_Z24_ZONEEQUIPMENTINLET,Air,2
 Node,256,OFFICE_OPEN_3_Z25_ZONEEQUIPMENTINLET,Air,2
 Node,257,STORAGE_3_Z26_ZONEEQUIPMENTINLET,Air,2
 Node,258,LOBBY_4_Z27_ZONEEQUIPMENTINLET,Air,2
 Node,259,CONFERENCE_4_Z28_ZONEEQUIPMENTINLET,Air,2
 Node,260,BREAK_ROOM_4_Z29_ZONEEQUIPMENTINLET,Air,2
 Node,261,MECHANICAL_4_Z30_ZONEEQUIPMENTINLET,Air,2
 Node,262,OFFICE_OPEN_4_Z31_ZONEEQUIPMENTINLET,Air,2
 Node,263,OFFICE_PRIVATE_4_Z32_ZONEEQUIPMENTINLET,Air,2
 Node,264,STORAGE_4_Z33_ZONEEQUIPMENTINLET,Air,2
 Node,265,LOBBY_0_Z1_ZONEEQUIPMENTOUTLETNODE,Air,2
 Node,266,CONFERENCE_0_Z2_ZONEEQUIPMENTOUTLETNODE,Air,2
 Node,267,BREAK_ROOM_0_Z3_ZONEEQUIPMENTOUTLETNODE,Air,2
 Node,268,MECHANICAL_0_Z4_ZONEEQUIPMENTOUTLETNODE,Air,2
 Node,269,OFFICE_OPEN_0_Z5_ZONEEQUIPMENTOUTLETNODE,Air,2
 Node,270,OFFICE_PRIVATE_0_Z6_ZONEEQUIPMENTOUTLETNODE,Air,2
 Node,271,STORAGE_0_Z7_ZONEEQUIPMENTOUTLETNODE,Air,2
 Node,272,LOBBY_1_Z8_ZONEEQUIPMENTOUTLETNODE,Air,2
 Node,273,CONFERENCE_1_Z9_ZONEEQUIPMENTOUTLETNODE,Air,2
 Node,274,BREAK_ROOM_1_Z10_ZONEEQUIPMENTOUTLETNODE,Air,2
 Node,275,MECHANICAL_1_Z11_ZONEEQUIPMENTOUTLETNODE,Air,2
 Node,276,OFFICE_OPEN_1_Z12_ZONEEQUIPMENTOUTLETNODE,Air,2
 Node,277,OFFICE_PRIVATE_1_Z13_ZONEEQUIPMENTOUTLETNODE,Air,2
 Node,278,STORAGE_1_Z14_ZONEEQUIPMENTOUTLETNODE,Air,2
 Node,279,LOBBY_2_Z15_ZONEEQUIPMENTOUTLETNODE,Air,2
 Node,280,CONFERENCE_2_Z16_ZONEEQUIPMENTOUTLETNODE,Air,2
 Node,281,BREAK_ROOM_2_Z17_ZONEEQUIPMENTOUTLETNODE,Air,2
 Node,282,MECHANICAL_2_Z18_ZONEEQUIPMENTOUTLETNODE,Air,2
 Node,283,OFFICE_OPEN_2_Z19_ZONEEQUIPMENTOUTLETNODE,Air,2
 Node,284,OFFICE_PRIVATE_2_Z20_ZONEEQUIPMENTOUTLETNODE,Air,2
 Node,285,STORAGE_2_Z21_ZONEEQUIPMENTOUTLETNODE,Air,2
 Node,286,CONFERENCE_3_Z22_ZONEEQUIPMENTOUTLETNODE,Air,2
 Node,287,BREAK_ROOM_3_Z23_ZONEEQUIPMENTOUTLETNODE,Air,2
 Node,288,MECHANICAL_3_Z24_ZONEEQUIPMENTOUTLETNODE,Air,2
 Node,289,OFFICE_OPEN_3_Z25_ZONEEQUIPMENTOUTLETNODE,Air,2
 Node,290,STORAGE_3_Z26_ZONEEQUIPMENTOUTLETNODE,Air,2
 Node,291,LOBBY_4_Z27_ZONEEQUIPMENTOUTLETNODE,Air,2
 Node,292,CONFERENCE_4_Z28_ZONEEQUIPMENTOUTLETNODE,Air,2
 Node,293,BREAK_ROOM_4_Z29_ZONEEQUIPMENTOUTLETNODE,Air,2
 Node,294,MECHANICAL_4_Z30_ZONEEQUIPMENTOUTLETNODE,Air,2
 Node,295,OFFICE_OPEN_4_Z31_ZONEEQUIPMENTOUTLETNODE,Air,2
 Node,296,OFFICE_PRIVATE_4_Z32_ZONEEQUIPMENTOUTLETNODE,Air,2
 Node,297,STORAGE_4_Z33_ZONEEQUIPMENTOUTLETNODE,Air,2
 Node,298,LOBBY_0_Z1_TERMINALINLET,Air,1
 Node,299,CONFERENCE_0_Z2_TERMINALINLET,Air,1
 Node,300,BREAK_ROOM_0_Z3_TERMINALINLET,Air,1
 Node,301,MECHANICAL_0_Z4_TERMINALINLET,Air,1
 Node,302,OFFICE_OPEN_0_Z5_TERMINALINLET,Air,1
 Node,303,OFFICE_PRIVATE_0_Z6_TERMINALINLET,Air,1
 Node,304,STORAGE_0_Z7_TERMINALINLET,Air,1
 Node,305,LOBBY_1_Z8_TERMINALINLET,Air,1
 Node,306,CONFERENCE_1_Z9_TERMINALINLET,Air,1
 Node,307,BREAK_ROOM_1_Z10_TERMINALINLET,Air,1
 Node,308,MECHANICAL_1_Z11_TERMINALINLET,Air,1
 Node,309,OFFICE_OPEN_1_Z12_TERMINALINLET,Air,1
 Node,310,OFFICE_PRIVATE_1_Z13_TERMINALINLET,Air,1
 Node,311,STORAGE_1_Z14_TERMINALINLET,Air,1
 Node,312,LOBBY_2_Z15_TERMINALINLET,Air,1
 Node,313,CONFERENCE_2_Z16_TERMINALINLET,Air,1
 Node,314,BREAK_ROOM_2_Z17_TERMINALINLET,Air,1
 Node,315,MECHANICAL_2_Z18_TERMINALINLET,Air,1
 Node,316,OFFICE_OPEN_2_Z19_TERMINALINLET,Air,1
 Node,317,OFFICE_PRIVATE_2_Z20_TERMINALINLET,Air,1
 Node,318,STORAGE_2_Z21_TERMINALINLET,Air,1
 Node,319,CONFERENCE_3_Z22_TERMINALINLET,Air,1
 Node,320,BREAK_ROOM_3_Z23_TERMINALINLET,Air,1
 Node,321,MECHANICAL_3_Z24_TERMINALINLET,Air,1
 Node,322,OFFICE_OPEN_3_Z25_TERMINALINLET,Air,1
 Node,323,STORAGE_3_Z26_TERMINALINLET,Air,1
 Node,324,LOBBY_4_Z27_TERMINALINLET,Air,1
 Node,325,CONFERENCE_4_Z28_TERMINALINLET,Air,1
 Node,326,BREAK_ROOM_4_Z29_TERMINALINLET,Air,1
 Node,327,MECHANICAL_4_Z30_TERMINALINLET,Air,1
 Node,328,OFFICE_OPEN_4_Z31_TERMINALINLET,Air,1
 Node,329,OFFICE_PRIVATE_4_Z32_TERMINALINLET,Air,1
 Node,330,STORAGE_4_Z33_TERMINALINLET,Air,1
 Node,331,LOBBY_0_Z1_TERMINALOUTLET,Air,1
 Node,332,CONFERENCE_0_Z2_TERMINALOUTLET,Air,1
 Node,333,BREAK_ROOM_0_Z3_TERMINALOUTLET,Air,1
 Node,334,MECHANICAL_0_Z4_TERMINALOUTLET,Air,1
 Node,335,OFFICE_OPEN_0_Z5_TERMINALOUTLET,Air,1
 Node,336,OFFICE_PRIVATE_0_Z6_TERMINALOUTLET,Air,1
 Node,337,STORAGE_0_Z7_TERMINALOUTLET,Air,1
 Node,338,LOBBY_1_Z8_TERMINALOUTLET,Air,1
 Node,339,CONFERENCE_1_Z9_TERMINALOUTLET,Air,1
 Node,340,BREAK_ROOM_1_Z10_TERMINALOUTLET,Air,1
 Node,341,MECHANICAL_1_Z11_TERMINALOUTLET,Air,1
 Node,342,OFFICE_OPEN_1_Z12_TERMINALOUTLET,Air,1
 Node,343,OFFICE_PRIVATE_1_Z13_TERMINALOUTLET,Air,1
 Node,344,STORAGE_1_Z14_TERMINALOUTLET,Air,1
 Node,345,LOBBY_2_Z15_TERMINALOUTLET,Air,1
 Node,346,CONFERENCE_2_Z16_TERMINALOUTLET,Air,1
 Node,347,BREAK_ROOM_2_Z17_TERMINALOUTLET,Air,1
 Node,348,MECHANICAL_2_Z18_TERMINALOUTLET,Air,1
 Node,349,OFFICE_OPEN_2_Z19_TERMINALOUTLET,Air,1
 Node,350,OFFICE_PRIVATE_2_Z20_TERMINALOUTLET,Air,1
 Node,351,STORAGE_2_Z21_TERMINALOUTLET,Air,1
 Node,352,CONFERENCE_3_Z22_TERMINALOUTLET,Air,1
 Node,353,BREAK_ROOM_3_Z23_TERMINALOUTLET,Air,1
 Node,354,MECHANICAL_3_Z24_TERMINALOUTLET,Air,1
 Node,355,OFFICE_OPEN_3_Z25_TERMINALOUTLET,Air,1
 Node,356,STORAGE_3_Z26_TERMINALOUTLET,Air,1
 Node,357,LOBBY_4_Z27_TERMINALOUTLET,Air,1
 Node,358,CONFERENCE_4_Z28_TERMINALOUTLET,Air,1
 Node,359,BREAK_ROOM_4_Z29_TERMINALOUTLET,Air,1
 Node,360,MECHANICAL_4_Z30_TERMINALOUTLET,Air,1
 Node,361,OFFICE_OPEN_4_Z31_TERMINALOUTLET,Air,1
 Node,362,OFFICE_PRIVATE_4_Z32_TERMINALOUTLET,Air,1
 Node,363,STORAGE_4_Z33_TERMINALOUTLET,Air,1
! ===============================================================
! Suspicious nodes have 0 references.  It is normal for some nodes, however.
! Listing nodes with 0 references (culled from previous list):
! <Suspicious Node>,<NodeNumber>,<Node Name>,<Node Fluid Type>,<# Times Node Referenced After Definition>
 Suspicious Node,166,LOBBY_0 AIR NODE,Air,0
 Suspicious Node,168,CONFERENCE_0 AIR NODE,Air,0
 Suspicious Node,170,BREAK_ROOM_0 AIR NODE,Air,0
 Suspicious Node,172,MECHANICAL_0 AIR NODE,Air,0
 Suspicious Node,174,OFFICE_OPEN_0 AIR NODE,Air,0
 Suspicious Node,176,OFFICE_PRIVATE_0 AIR NODE,Air,0
 Suspicious Node,178,STORAGE_0 AIR NODE,Air,0
 Suspicious Node,180,LOBBY_1 AIR NODE,Air,0
 Suspicious Node,182,CONFERENCE_1 AIR NODE,Air,0
 Suspicious Node,184,BREAK_ROOM_1 AIR NODE,Air,0
 Suspicious Node,186,MECHANICAL_1 AIR NODE,Air,0
 Suspicious Node,188,OFFICE_OPEN_1 AIR NODE,Air,0
 Suspicious Node,190,OFFICE_PRIVATE_1 AIR NODE,Air,0
 Suspicious Node,192,STORAGE_1 AIR NODE,Air,0
 Suspicious Node,194,LOBBY_2 AIR NODE,Air,0
 Suspicious Node,196,CONFERENCE_2 AIR NODE,Air,0
 Suspicious Node,198,BREAK_ROOM_2 AIR NODE,Air,0
 Suspicious Node,200,MECHANICAL_2 AIR NODE,Air,0
 Suspicious Node,202,OFFICE_OPEN_2 AIR NODE,Air,0
 Suspicious Node,204,OFFICE_PRIVATE_2 AIR NODE,Air,0
 Suspicious Node,206,STORAGE_2 AIR NODE,Air,0
 Suspicious Node,208,CONFERENCE_3 AIR NODE,Air,0
 Suspicious Node,210,BREAK_ROOM_3 AIR NODE,Air,0
 Suspicious Node,212,MECHANICAL_3 AIR NODE,Air,0
 Suspicious Node,214,OFFICE_OPEN_3 AIR NODE,Air,0
 Suspicious Node,216,STORAGE_3 AIR NODE,Air,0
 Suspicious Node,218,LOBBY_4 AIR NODE,Air,0
 Suspicious Node,220,CONFERENCE_4 AIR NODE,Air,0
 Suspicious Node,222,BREAK_ROOM_4 AIR NODE,Air,0
 Suspicious Node,224,MECHANICAL_4 AIR NODE,Air,0
 Suspicious Node,226,OFFICE_OPEN_4 AIR NODE,Air,0
 Suspicious Node,228,OFFICE_PRIVATE_4 AIR NODE,Air,0
 Suspicious Node,230,STORAGE_4 AIR NODE,Air,0
! ===============================================================
! <#Branch Lists>,<Number of Branch Lists>
 #Branch Lists,33
! <Branch List>,<Branch List Count>,<Branch List Name>,<Loop Name>,<Loop Type>,<Number of Branches>
! <Branch>,<Branch Count>,<Branch Name>,<Loop Name>,<Loop Type>,<Branch Inlet Node Name>,<Branch Outlet Node Name>
 Branch List,1,LOBBY_0_Z1_BRANCHLIST,LOBBY_0_Z1_AIRLOOP,Air,1
   Branch,1,LOBBY_0_Z1_MAINBRANCH,LOBBY_0_Z1_AIRLOOP,Air,LOBBY_0_Z1_SUPPLYINLET,LOBBY_0_Z1_SUPPLYEQUIPMENTOUTLETNODE
 Branch List,2,CONFERENCE_0_Z2_BRANCHLIST,CONFERENCE_0_Z2_AIRLOOP,Air,1
   Branch,1,CONFERENCE_0_Z2_MAINBRANCH,CONFERENCE_0_Z2_AIRLOOP,Air,CONFERENCE_0_Z2_SUPPLYINLET,CONFERENCE_0_Z2_SUPPLYEQUIPMENTOUTLETNODE
 Branch List,3,BREAK_ROOM_0_Z3_BRANCHLIST,BREAK_ROOM_0_Z3_AIRLOOP,Air,1
   Branch,1,BREAK_ROOM_0_Z3_MAINBRANCH,BREAK_ROOM_0_Z3_AIRLOOP,Air,BREAK_ROOM_0_Z3_SUPPLYINLET,BREAK_ROOM_0_Z3_SUPPLYEQUIPMENTOUTLETNODE
 Branch List,4,MECHANICAL_0_Z4_BRANCHLIST,MECHANICAL_0_Z4_AIRLOOP,Air,1
   Branch,1,MECHANICAL_0_Z4_MAINBRANCH,MECHANICAL_0_Z4_AIRLOOP,Air,MECHANICAL_0_Z4_SUPPLYINLET,MECHANICAL_0_Z4_SUPPLYEQUIPMENTOUTLETNODE
 Branch List,5,OFFICE_OPEN_0_Z5_BRANCHLIST,OFFICE_OPEN_0_Z5_AIRLOOP,Air,1
   Branch,1,OFFICE_OPEN_0_Z5_MAINBRANCH,OFFICE_OPEN_0_Z5_AIRLOOP,Air,OFFICE_OPEN_0_Z5_SUPPLYINLET,OFFICE_OPEN_0_Z5_SUPPLYEQUIPMENTOUTLETNODE
 Branch List,6,OFFICE_PRIVATE_0_Z6_BRANCHLIST,OFFICE_PRIVATE_0_Z6_AIRLOOP,Air,1
   Branch,1,OFFICE_PRIVATE_0_Z6_MAINBRANCH,OFFICE_PRIVATE_0_Z6_AIRLOOP,Air,OFFICE_PRIVATE_0_Z6_SUPPLYINLET,OFFICE_PRIVATE_0_Z6_SUPPLYEQUIPMENTOUTLETNODE
 Branch List,7,STORAGE_0_Z7_BRANCHLIST,STORAGE_0_Z7_AIRLOOP,Air,1
   Branch,1,STORAGE_0_Z7_MAINBRANCH,STORAGE_0_Z7_AIRLOOP,Air,STORAGE_0_Z7_SUPPLYINLET,STORAGE_0_Z7_SUPPLYEQUIPMENTOUTLETNODE
 Branch List,8,LOBBY_1_Z8_BRANCHLIST,LOBBY_1_Z8_AIRLOOP,Air,1
   Branch,1,LOBBY_1_Z8_MAINBRANCH,LOBBY_1_Z8_AIRLOOP,Air,LOBBY_1_Z8_SUPPLYINLET,LOBBY_1_Z8_SUPPLYEQUIPMENTOUTLETNODE
 Branch List,9,CONFERENCE_1_Z9_BRANCHLIST,CONFERENCE_1_Z9_AIRLOOP,Air,1
   Branch,1,CONFERENCE_1_Z9_MAINBRANCH,CONFERENCE_1_Z9_AIRLOOP,Air,CONFERENCE_1_Z9_SUPPLYINLET,CONFERENCE_1_Z9_SUPPLYEQUIPMENTOUTLETNODE
 Branch List,10,BREAK_ROOM_1_Z10_BRANCHLIST,BREAK_ROOM_1_Z10_AIRLOOP,Air,1
   Branch,1,BREAK_ROOM_1_Z10_MAINBRANCH,BREAK_ROOM_1_Z10_AIRLOOP,Air,BREAK_ROOM_1_Z10_SUPPLYINLET,BREAK_ROOM_1_Z10_SUPPLYEQUIPMENTOUTLETNODE
 Branch List,11,MECHANICAL_1_Z11_BRANCHLIST,MECHANICAL_1_Z11_AIRLOOP,Air,1
   Branch,1,MECHANICAL_1_Z11_MAINBRANCH,MECHANICAL_1_Z11_AIRLOOP,Air,MECHANICAL_1_Z11_SUPPLYINLET,MECHANICAL_1_Z11_SUPPLYEQUIPMENTOUTLETNODE
 Branch List,12,OFFICE_OPEN_1_Z12_BRANCHLIST,OFFICE_OPEN_1_Z12_AIRLOOP,Air,1
   Branch,1,OFFICE_OPEN_1_Z12_MAINBRANCH,OFFICE_OPEN_1_Z12_AIRLOOP,Air,OFFICE_OPEN_1_Z12_SUPPLYINLET,OFFICE_OPEN_1_Z12_SUPPLYEQUIPMENTOUTLETNODE
 Branch List,13,OFFICE_PRIVATE_1_Z13_BRANCHLIST,OFFICE_PRIVATE_1_Z13_AIRLOOP,Air,1
   Branch,1,OFFICE_PRIVATE_1_Z13_MAINBRANCH,OFFICE_PRIVATE_1_Z13_AIRLOOP,Air,OFFICE_PRIVATE_1_Z13_SUPPLYINLET,OFFICE_PRIVATE_1_Z13_SUPPLYEQUIPMENTOUTLETNODE
 Branch List,14,STORAGE_1_Z14_BRANCHLIST,STORAGE_1_Z14_AIRLOOP,Air,1
   Branch,1,STORAGE_1_Z14_MAINBRANCH,STORAGE_1_Z14_AIRLOOP,Air,STORAGE_1_Z14_SUPPLYINLET,STORAGE_1_Z14_SUPPLYEQUIPMENTOUTLETNODE
 Branch List,15,LOBBY_2_Z15_BRANCHLIST,LOBBY_2_Z15_AIRLOOP,Air,1
   Branch,1,LOBBY_2_Z15_MAINBRANCH,LOBBY_2_Z15_AIRLOOP,Air,LOBBY_2_Z15_SUPPLYINLET,LOBBY_2_Z15_SUPPLYEQUIPMENTOUTLETNODE
 Branch List,16,CONFERENCE_2_Z16_BRANCHLIST,CONFERENCE_2_Z16_AIRLOOP,Air,1
   Branch,1,CONFERENCE_2_Z16_MAINBRANCH,CONFERENCE_2_Z16_AIRLOOP,Air,CONFERENCE_2_Z16_SUPPLYINLET,CONFERENCE_2_Z16_SUPPLYEQUIPMENTOUTLETNODE
 Branch List,17,BREAK_ROOM_2_Z17_BRANCHLIST,BREAK_ROOM_2_Z17_AIRLOOP,Air,1
   Branch,1,BREAK_ROOM_2_Z17_MAINBRANCH,BREAK_ROOM_2_Z17_AIRLOOP,Air,BREAK_ROOM_2_Z17_SUPPLYINLET,BREAK_ROOM_2_Z17_SUPPLYEQUIPMENTOUTLETNODE
 Branch List,18,MECHANICAL_2_Z18_BRANCHLIST,MECHANICAL_2_Z18_AIRLOOP,Air,1
   Branch,1,MECHANICAL_2_Z18_MAINBRANCH,MECHANICAL_2_Z18_AIRLOOP,Air,MECHANICAL_2_Z18_SUPPLYINLET,MECHANICAL_2_Z18_SUPPLYEQUIPMENTOUTLETNODE
 Branch List,19,OFFICE_OPEN_2_Z19_BRANCHLIST,OFFICE_OPEN_2_Z19_AIRLOOP,Air,1
   Branch,1,OFFICE_OPEN_2_Z19_MAINBRANCH,OFFICE_OPEN_2_Z19_AIRLOOP,Air,OFFICE_OPEN_2_Z19_SUPPLYINLET,OFFICE_OPEN_2_Z19_SUPPLYEQUIPMENTOUTLETNODE
 Branch List,20,OFFICE_PRIVATE_2_Z20_BRANCHLIST,OFFICE_PRIVATE_2_Z20_AIRLOOP,Air,1
   Branch,1,OFFICE_PRIVATE_2_Z20_MAINBRANCH,OFFICE_PRIVATE_2_Z20_AIRLOOP,Air,OFFICE_PRIVATE_2_Z20_SUPPLYINLET,OFFICE_PRIVATE_2_Z20_SUPPLYEQUIPMENTOUTLETNODE
 Branch List,21,STORAGE_2_Z21_BRANCHLIST,STORAGE_2_Z21_AIRLOOP,Air,1
   Branch,1,STORAGE_2_Z21_MAINBRANCH,STORAGE_2_Z21_AIRLOOP,Air,STORAGE_2_Z21_SUPPLYINLET,STORAGE_2_Z21_SUPPLYEQUIPMENTOUTLETNODE
 Branch List,22,CONFERENCE_3_Z22_BRANCHLIST,CONFERENCE_3_Z22_AIRLOOP,Air,1
   Branch,1,CONFERENCE_3_Z22_MAINBRANCH,CONFERENCE_3_Z22_AIRLOOP,Air,CONFERENCE_3_Z22_SUPPLYINLET,CONFERENCE_3_Z22_SUPPLYEQUIPMENTOUTLETNODE
 Branch List,23,BREAK_ROOM_3_Z23_BRANCHLIST,BREAK_ROOM_3_Z23_AIRLOOP,Air,1
   Branch,1,BREAK_ROOM_3_Z23_MAINBRANCH,BREAK_ROOM_3_Z23_AIRLOOP,Air,BREAK_ROOM_3_Z23_SUPPLYINLET,BREAK_ROOM_3_Z23_SUPPLYEQUIPMENTOUTLETNODE
 Branch List,24,MECHANICAL_3_Z24_BRANCHLIST,MECHANICAL_3_Z24_AIRLOOP,Air,1
   Branch,1,MECHANICAL_3_Z24_MAINBRANCH,MECHANICAL_3_Z24_AIRLOOP,Air,MECHANICAL_3_Z24_SUPPLYINLET,MECHANICAL_3_Z24_SUPPLYEQUIPMENTOUTLETNODE
 Branch List,25,OFFICE_OPEN_3_Z25_BRANCHLIST,OFFICE_OPEN_3_Z25_AIRLOOP,Air,1
   Branch,1,OFFICE_OPEN_3_Z25_MAINBRANCH,OFFICE_OPEN_3_Z25_AIRLOOP,Air,OFFICE_OPEN_3_Z25_SUPPLYINLET,OFFICE_OPEN_3_Z25_SUPPLYEQUIPMENTOUTLETNODE
 Branch List,26,STORAGE_3_Z26_BRANCHLIST,STORAGE_3_Z26_AIRLOOP,Air,1
   Branch,1,STORAGE_3_Z26_MAINBRANCH,STORAGE_3_Z26_AIRLOOP,Air,STORAGE_3_Z26_SUPPLYINLET,STORAGE_3_Z26_SUPPLYEQUIPMENTOUTLETNODE
 Branch List,27,LOBBY_4_Z27_BRANCHLIST,LOBBY_4_Z27_AIRLOOP,Air,1
   Branch,1,LOBBY_4_Z27_MAINBRANCH,LOBBY_4_Z27_AIRLOOP,Air,LOBBY_4_Z27_SUPPLYINLET,LOBBY_4_Z27_SUPPLYEQUIPMENTOUTLETNODE
 Branch List,28,CONFERENCE_4_Z28_BRANCHLIST,CONFERENCE_4_Z28_AIRLOOP,Air,1
   Branch,1,CONFERENCE_4_Z28_MAINBRANCH,CONFERENCE_4_Z28_AIRLOOP,Air,CONFERENCE_4_Z28_SUPPLYINLET,CONFERENCE_4_Z28_SUPPLYEQUIPMENTOUTLETNODE
 Branch List,29,BREAK_ROOM_4_Z29_BRANCHLIST,BREAK_ROOM_4_Z29_AIRLOOP,Air,1
   Branch,1,BREAK_ROOM_4_Z29_MAINBRANCH,BREAK_ROOM_4_Z29_AIRLOOP,Air,BREAK_ROOM_4_Z29_SUPPLYINLET,BREAK_ROOM_4_Z29_SUPPLYEQUIPMENTOUTLETNODE
 Branch List,30,MECHANICAL_4_Z30_BRANCHLIST,MECHANICAL_4_Z30_AIRLOOP,Air,1
   Branch,1,MECHANICAL_4_Z30_MAINBRANCH,MECHANICAL_4_Z30_AIRLOOP,Air,MECHANICAL_4_Z30_SUPPLYINLET,MECHANICAL_4_Z30_SUPPLYEQUIPMENTOUTLETNODE
 Branch List,31,OFFICE_OPEN_4_Z31_BRANCHLIST,OFFICE_OPEN_4_Z31_AIRLOOP,Air,1
   Branch,1,OFFICE_OPEN_4_Z31_MAINBRANCH,OFFICE_OPEN_4_Z31_AIRLOOP,Air,OFFICE_OPEN_4_Z31_SUPPLYINLET,OFFICE_OPEN_4_Z31_SUPPLYEQUIPMENTOUTLETNODE
 Branch List,32,OFFICE_PRIVATE_4_Z32_BRANCHLIST,OFFICE_PRIVATE_4_Z32_AIRLOOP,Air,1
   Branch,1,OFFICE_PRIVATE_4_Z32_MAINBRANCH,OFFICE_PRIVATE_4_Z32_AIRLOOP,Air,OFFICE_PRIVATE_4_Z32_SUPPLYINLET,OFFICE_PRIVATE_4_Z32_SUPPLYEQUIPMENTOUTLETNODE
 Branch List,33,STORAGE_4_Z33_BRANCHLIST,STORAGE_4_Z33_AIRLOOP,Air,1
   Branch,1,STORAGE_4_Z33_MAINBRANCH,STORAGE_4_Z33_AIRLOOP,Air,STORAGE_4_Z33_SUPPLYINLET,STORAGE_4_Z33_SUPPLYEQUIPMENTOUTLETNODE
! ===============================================================
! <#Supply Air Paths>,<Number of Supply Air Paths>
 #Supply Air Paths,33
! <Supply Air Path>,<Supply Air Path Count>,<Supply Air Path Name>,<AirLoopHVAC Name>
! <#Components on Supply Air Path>,<Number of Components>
! <Supply Air Path Component>,<Component Count>,<Component Type>,<Component Name>,<AirLoopHVAC Name>
! <#Outlet Nodes on Supply Air Path Component>,<Number of Nodes>
! <Supply Air Path Component Nodes>,<Node Count>,<Component Type>,<Component Name>,<Inlet Node Name>,<Outlet Node Name>,<AirLoopHVAC Name>
 Supply Air Path,1,LOBBY_0_Z1,LOBBY_0_Z1_AIRLOOP
   #Components on Supply Air Path,1
   Supply Air Path Component,1,AIRLOOPHVAC:ZONESPLITTER,LOBBY_0_Z1_SUPPLYSPLITTER,LOBBY_0_Z1_AIRLOOP
     #Outlet Nodes on Supply Air Path Component,1
     Supply Air Path Component Nodes,1,AIRLOOPHVAC:ZONESPLITTER,LOBBY_0_Z1_SUPPLYSPLITTER,LOBBY_0_Z1_ZONEEQUIPMENTINLET,LOBBY_0_Z1_TERMINALINLET,LOBBY_0_Z1_AIRLOOP
! <#Nodes on Supply Air Path>,<Number of Nodes>
! <Supply Air Path Node>,<Node Type>,<Node Count>,<Node Name>,<AirLoopHVAC Name>
#Nodes on Supply Air Path,2
   Supply Air Path Node,Inlet Node,1,LOBBY_0_Z1_ZONEEQUIPMENTINLET,LOBBY_0_Z1_AIRLOOP
   Supply Air Path Node,Outlet Node,2,LOBBY_0_Z1_TERMINALINLET,LOBBY_0_Z1_AIRLOOP
 Supply Air Path,2,CONFERENCE_0_Z2,CONFERENCE_0_Z2_AIRLOOP
   #Components on Supply Air Path,1
   Supply Air Path Component,1,AIRLOOPHVAC:ZONESPLITTER,CONFERENCE_0_Z2_SUPPLYSPLITTER,CONFERENCE_0_Z2_AIRLOOP
     #Outlet Nodes on Supply Air Path Component,1
     Supply Air Path Component Nodes,1,AIRLOOPHVAC:ZONESPLITTER,CONFERENCE_0_Z2_SUPPLYSPLITTER,CONFERENCE_0_Z2_ZONEEQUIPMENTINLET,CONFERENCE_0_Z2_TERMINALINLET,CONFERENCE_0_Z2_AIRLOOP
! <#Nodes on Supply Air Path>,<Number of Nodes>
! <Supply Air Path Node>,<Node Type>,<Node Count>,<Node Name>,<AirLoopHVAC Name>
#Nodes on Supply Air Path,2
   Supply Air Path Node,Inlet Node,1,CONFERENCE_0_Z2_ZONEEQUIPMENTINLET,CONFERENCE_0_Z2_AIRLOOP
   Supply Air Path Node,Outlet Node,2,CONFERENCE_0_Z2_TERMINALINLET,CONFERENCE_0_Z2_AIRLOOP
 Supply Air Path,3,BREAK_ROOM_0_Z3,BREAK_ROOM_0_Z3_AIRLOOP
   #Components on Supply Air Path,1
   Supply Air Path Component,1,AIRLOOPHVAC:ZONESPLITTER,BREAK_ROOM_0_Z3_SUPPLYSPLITTER,BREAK_ROOM_0_Z3_AIRLOOP
     #Outlet Nodes on Supply Air Path Component,1
     Supply Air Path Component Nodes,1,AIRLOOPHVAC:ZONESPLITTER,BREAK_ROOM_0_Z3_SUPPLYSPLITTER,BREAK_ROOM_0_Z3_ZONEEQUIPMENTINLET,BREAK_ROOM_0_Z3_TERMINALINLET,BREAK_ROOM_0_Z3_AIRLOOP
! <#Nodes on Supply Air Path>,<Number of Nodes>
! <Supply Air Path Node>,<Node Type>,<Node Count>,<Node Name>,<AirLoopHVAC Name>
#Nodes on Supply Air Path,2
   Supply Air Path Node,Inlet Node,1,BREAK_ROOM_0_Z3_ZONEEQUIPMENTINLET,BREAK_ROOM_0_Z3_AIRLOOP
   Supply Air Path Node,Outlet Node,2,BREAK_ROOM_0_Z3_TERMINALINLET,BREAK_ROOM_0_Z3_AIRLOOP
 Supply Air Path,4,MECHANICAL_0_Z4,MECHANICAL_0_Z4_AIRLOOP
   #Components on Supply Air Path,1
   Supply Air Path Component,1,AIRLOOPHVAC:ZONESPLITTER,MECHANICAL_0_Z4_SUPPLYSPLITTER,MECHANICAL_0_Z4_AIRLOOP
     #Outlet Nodes on Supply Air Path Component,1
     Supply Air Path Component Nodes,1,AIRLOOPHVAC:ZONESPLITTER,MECHANICAL_0_Z4_SUPPLYSPLITTER,MECHANICAL_0_Z4_ZONEEQUIPMENTINLET,MECHANICAL_0_Z4_TERMINALINLET,MECHANICAL_0_Z4_AIRLOOP
! <#Nodes on Supply Air Path>,<Number of Nodes>
! <Supply Air Path Node>,<Node Type>,<Node Count>,<Node Name>,<AirLoopHVAC Name>
#Nodes on Supply Air Path,2
   Supply Air Path Node,Inlet Node,1,MECHANICAL_0_Z4_ZONEEQUIPMENTINLET,MECHANICAL_0_Z4_AIRLOOP
   Supply Air Path Node,Outlet Node,2,MECHANICAL_0_Z4_TERMINALINLET,MECHANICAL_0_Z4_AIRLOOP
 Supply Air Path,5,OFFICE_OPEN_0_Z5,OFFICE_OPEN_0_Z5_AIRLOOP
   #Components on Supply Air Path,1
   Supply Air Path Component,1,AIRLOOPHVAC:ZONESPLITTER,OFFICE_OPEN_0_Z5_SUPPLYSPLITTER,OFFICE_OPEN_0_Z5_AIRLOOP
     #Outlet Nodes on Supply Air Path Component,1
     Supply Air Path Component Nodes,1,AIRLOOPHVAC:ZONESPLITTER,OFFICE_OPEN_0_Z5_SUPPLYSPLITTER,OFFICE_OPEN_0_Z5_ZONEEQUIPMENTINLET,OFFICE_OPEN_0_Z5_TERMINALINLET,OFFICE_OPEN_0_Z5_AIRLOOP
! <#Nodes on Supply Air Path>,<Number of Nodes>
! <Supply Air Path Node>,<Node Type>,<Node Count>,<Node Name>,<AirLoopHVAC Name>
#Nodes on Supply Air Path,2
   Supply Air Path Node,Inlet Node,1,OFFICE_OPEN_0_Z5_ZONEEQUIPMENTINLET,OFFICE_OPEN_0_Z5_AIRLOOP
   Supply Air Path Node,Outlet Node,2,OFFICE_OPEN_0_Z5_TERMINALINLET,OFFICE_OPEN_0_Z5_AIRLOOP
 Supply Air Path,6,OFFICE_PRIVATE_0_Z6,OFFICE_PRIVATE_0_Z6_AIRLOOP
   #Components on Supply Air Path,1
   Supply Air Path Component,1,AIRLOOPHVAC:ZONESPLITTER,OFFICE_PRIVATE_0_Z6_SUPPLYSPLITTER,OFFICE_PRIVATE_0_Z6_AIRLOOP
     #Outlet Nodes on Supply Air Path Component,1
     Supply Air Path Component Nodes,1,AIRLOOPHVAC:ZONESPLITTER,OFFICE_PRIVATE_0_Z6_SUPPLYSPLITTER,OFFICE_PRIVATE_0_Z6_ZONEEQUIPMENTINLET,OFFICE_PRIVATE_0_Z6_TERMINALINLET,OFFICE_PRIVATE_0_Z6_AIRLOOP
! <#Nodes on Supply Air Path>,<Number of Nodes>
! <Supply Air Path Node>,<Node Type>,<Node Count>,<Node Name>,<AirLoopHVAC Name>
#Nodes on Supply Air Path,2
   Supply Air Path Node,Inlet Node,1,OFFICE_PRIVATE_0_Z6_ZONEEQUIPMENTINLET,OFFICE_PRIVATE_0_Z6_AIRLOOP
   Supply Air Path Node,Outlet Node,2,OFFICE_PRIVATE_0_Z6_TERMINALINLET,OFFICE_PRIVATE_0_Z6_AIRLOOP
 Supply Air Path,7,STORAGE_0_Z7,STORAGE_0_Z7_AIRLOOP
   #Components on Supply Air Path,1
   Supply Air Path Component,1,AIRLOOPHVAC:ZONESPLITTER,STORAGE_0_Z7_SUPPLYSPLITTER,STORAGE_0_Z7_AIRLOOP
     #Outlet Nodes on Supply Air Path Component,1
     Supply Air Path Component Nodes,1,AIRLOOPHVAC:ZONESPLITTER,STORAGE_0_Z7_SUPPLYSPLITTER,STORAGE_0_Z7_ZONEEQUIPMENTINLET,STORAGE_0_Z7_TERMINALINLET,STORAGE_0_Z7_AIRLOOP
! <#Nodes on Supply Air Path>,<Number of Nodes>
! <Supply Air Path Node>,<Node Type>,<Node Count>,<Node Name>,<AirLoopHVAC Name>
#Nodes on Supply Air Path,2
   Supply Air Path Node,Inlet Node,1,STORAGE_0_Z7_ZONEEQUIPMENTINLET,STORAGE_0_Z7_AIRLOOP
   Supply Air Path Node,Outlet Node,2,STORAGE_0_Z7_TERMINALINLET,STORAGE_0_Z7_AIRLOOP
 Supply Air Path,8,LOBBY_1_Z8,LOBBY_1_Z8_AIRLOOP
   #Components on Supply Air Path,1
   Supply Air Path Component,1,AIRLOOPHVAC:ZONESPLITTER,LOBBY_1_Z8_SUPPLYSPLITTER,LOBBY_1_Z8_AIRLOOP
     #Outlet Nodes on Supply Air Path Component,1
     Supply Air Path Component Nodes,1,AIRLOOPHVAC:ZONESPLITTER,LOBBY_1_Z8_SUPPLYSPLITTER,LOBBY_1_Z8_ZONEEQUIPMENTINLET,LOBBY_1_Z8_TERMINALINLET,LOBBY_1_Z8_AIRLOOP
! <#Nodes on Supply Air Path>,<Number of Nodes>
! <Supply Air Path Node>,<Node Type>,<Node Count>,<Node Name>,<AirLoopHVAC Name>
#Nodes on Supply Air Path,2
   Supply Air Path Node,Inlet Node,1,LOBBY_1_Z8_ZONEEQUIPMENTINLET,LOBBY_1_Z8_AIRLOOP
   Supply Air Path Node,Outlet Node,2,LOBBY_1_Z8_TERMINALINLET,LOBBY_1_Z8_AIRLOOP
 Supply Air Path,9,CONFERENCE_1_Z9,CONFERENCE_1_Z9_AIRLOOP
   #Components on Supply Air Path,1
   Supply Air Path Component,1,AIRLOOPHVAC:ZONESPLITTER,CONFERENCE_1_Z9_SUPPLYSPLITTER,CONFERENCE_1_Z9_AIRLOOP
     #Outlet Nodes on Supply Air Path Component,1
     Supply Air Path Component Nodes,1,AIRLOOPHVAC:ZONESPLITTER,CONFERENCE_1_Z9_SUPPLYSPLITTER,CONFERENCE_1_Z9_ZONEEQUIPMENTINLET,CONFERENCE_1_Z9_TERMINALINLET,CONFERENCE_1_Z9_AIRLOOP
! <#Nodes on Supply Air Path>,<Number of Nodes>
! <Supply Air Path Node>,<Node Type>,<Node Count>,<Node Name>,<AirLoopHVAC Name>
#Nodes on Supply Air Path,2
   Supply Air Path Node,Inlet Node,1,CONFERENCE_1_Z9_ZONEEQUIPMENTINLET,CONFERENCE_1_Z9_AIRLOOP
   Supply Air Path Node,Outlet Node,2,CONFERENCE_1_Z9_TERMINALINLET,CONFERENCE_1_Z9_AIRLOOP
 Supply Air Path,10,BREAK_ROOM_1_Z10,BREAK_ROOM_1_Z10_AIRLOOP
   #Components on Supply Air Path,1
   Supply Air Path Component,1,AIRLOOPHVAC:ZONESPLITTER,BREAK_ROOM_1_Z10_SUPPLYSPLITTER,BREAK_ROOM_1_Z10_AIRLOOP
     #Outlet Nodes on Supply Air Path Component,1
     Supply Air Path Component Nodes,1,AIRLOOPHVAC:ZONESPLITTER,BREAK_ROOM_1_Z10_SUPPLYSPLITTER,BREAK_ROOM_1_Z10_ZONEEQUIPMENTINLET,BREAK_ROOM_1_Z10_TERMINALINLET,BREAK_ROOM_1_Z10_AIRLOOP
! <#Nodes on Supply Air Path>,<Number of Nodes>
! <Supply Air Path Node>,<Node Type>,<Node Count>,<Node Name>,<AirLoopHVAC Name>
#Nodes on Supply Air Path,2
   Supply Air Path Node,Inlet Node,1,BREAK_ROOM_1_Z10_ZONEEQUIPMENTINLET,BREAK_ROOM_1_Z10_AIRLOOP
   Supply Air Path Node,Outlet Node,2,BREAK_ROOM_1_Z10_TERMINALINLET,BREAK_ROOM_1_Z10_AIRLOOP
 Supply Air Path,11,MECHANICAL_1_Z11,MECHANICAL_1_Z11_AIRLOOP
   #Components on Supply Air Path,1
   Supply Air Path Component,1,AIRLOOPHVAC:ZONESPLITTER,MECHANICAL_1_Z11_SUPPLYSPLITTER,MECHANICAL_1_Z11_AIRLOOP
     #Outlet Nodes on Supply Air Path Component,1
     Supply Air Path Component Nodes,1,AIRLOOPHVAC:ZONESPLITTER,MECHANICAL_1_Z11_SUPPLYSPLITTER,MECHANICAL_1_Z11_ZONEEQUIPMENTINLET,MECHANICAL_1_Z11_TERMINALINLET,MECHANICAL_1_Z11_AIRLOOP
! <#Nodes on Supply Air Path>,<Number of Nodes>
! <Supply Air Path Node>,<Node Type>,<Node Count>,<Node Name>,<AirLoopHVAC Name>
#Nodes on Supply Air Path,2
   Supply Air Path Node,Inlet Node,1,MECHANICAL_1_Z11_ZONEEQUIPMENTINLET,MECHANICAL_1_Z11_AIRLOOP
   Supply Air Path Node,Outlet Node,2,MECHANICAL_1_Z11_TERMINALINLET,MECHANICAL_1_Z11_AIRLOOP
 Supply Air Path,12,OFFICE_OPEN_1_Z12,OFFICE_OPEN_1_Z12_AIRLOOP
   #Components on Supply Air Path,1
   Supply Air Path Component,1,AIRLOOPHVAC:ZONESPLITTER,OFFICE_OPEN_1_Z12_SUPPLYSPLITTER,OFFICE_OPEN_1_Z12_AIRLOOP
     #Outlet Nodes on Supply Air Path Component,1
     Supply Air Path Component Nodes,1,AIRLOOPHVAC:ZONESPLITTER,OFFICE_OPEN_1_Z12_SUPPLYSPLITTER,OFFICE_OPEN_1_Z12_ZONEEQUIPMENTINLET,OFFICE_OPEN_1_Z12_TERMINALINLET,OFFICE_OPEN_1_Z12_AIRLOOP
! <#Nodes on Supply Air Path>,<Number of Nodes>
! <Supply Air Path Node>,<Node Type>,<Node Count>,<Node Name>,<AirLoopHVAC Name>
#Nodes on Supply Air Path,2
   Supply Air Path Node,Inlet Node,1,OFFICE_OPEN_1_Z12_ZONEEQUIPMENTINLET,OFFICE_OPEN_1_Z12_AIRLOOP
   Supply Air Path Node,Outlet Node,2,OFFICE_OPEN_1_Z12_TERMINALINLET,OFFICE_OPEN_1_Z12_AIRLOOP
 Supply Air Path,13,OFFICE_PRIVATE_1_Z13,OFFICE_PRIVATE_1_Z13_AIRLOOP
   #Components on Supply Air Path,1
   Supply Air Path Component,1,AIRLOOPHVAC:ZONESPLITTER,OFFICE_PRIVATE_1_Z13_SUPPLYSPLITTER,OFFICE_PRIVATE_1_Z13_AIRLOOP
     #Outlet Nodes on Supply Air Path Component,1
     Supply Air Path Component Nodes,1,AIRLOOPHVAC:ZONESPLITTER,OFFICE_PRIVATE_1_Z13_SUPPLYSPLITTER,OFFICE_PRIVATE_1_Z13_ZONEEQUIPMENTINLET,OFFICE_PRIVATE_1_Z13_TERMINALINLET,OFFICE_PRIVATE_1_Z13_AIRLOOP
! <#Nodes on Supply Air Path>,<Number of Nodes>
! <Supply Air Path Node>,<Node Type>,<Node Count>,<Node Name>,<AirLoopHVAC Name>
#Nodes on Supply Air Path,2
   Supply Air Path Node,Inlet Node,1,OFFICE_PRIVATE_1_Z13_ZONEEQUIPMENTINLET,OFFICE_PRIVATE_1_Z13_AIRLOOP
   Supply Air Path Node,Outlet Node,2,OFFICE_PRIVATE_1_Z13_TERMINALINLET,OFFICE_PRIVATE_1_Z13_AIRLOOP
 Supply Air Path,14,STORAGE_1_Z14,STORAGE_1_Z14_AIRLOOP
   #Components on Supply Air Path,1
   Supply Air Path Component,1,AIRLOOPHVAC:ZONESPLITTER,STORAGE_1_Z14_SUPPLYSPLITTER,STORAGE_1_Z14_AIRLOOP
     #Outlet Nodes on Supply Air Path Component,1
     Supply Air Path Component Nodes,1,AIRLOOPHVAC:ZONESPLITTER,STORAGE_1_Z14_SUPPLYSPLITTER,STORAGE_1_Z14_ZONEEQUIPMENTINLET,STORAGE_1_Z14_TERMINALINLET,STORAGE_1_Z14_AIRLOOP
! <#Nodes on Supply Air Path>,<Number of Nodes>
! <Supply Air Path Node>,<Node Type>,<Node Count>,<Node Name>,<AirLoopHVAC Name>
#Nodes on Supply Air Path,2
   Supply Air Path Node,Inlet Node,1,STORAGE_1_Z14_ZONEEQUIPMENTINLET,STORAGE_1_Z14_AIRLOOP
   Supply Air Path Node,Outlet Node,2,STORAGE_1_Z14_TERMINALINLET,STORAGE_1_Z14_AIRLOOP
 Supply Air Path,15,LOBBY_2_Z15,LOBBY_2_Z15_AIRLOOP
   #Components on Supply Air Path,1
   Supply Air Path Component,1,AIRLOOPHVAC:ZONESPLITTER,LOBBY_2_Z15_SUPPLYSPLITTER,LOBBY_2_Z15_AIRLOOP
     #Outlet Nodes on Supply Air Path Component,1
     Supply Air Path Component Nodes,1,AIRLOOPHVAC:ZONESPLITTER,LOBBY_2_Z15_SUPPLYSPLITTER,LOBBY_2_Z15_ZONEEQUIPMENTINLET,LOBBY_2_Z15_TERMINALINLET,LOBBY_2_Z15_AIRLOOP
! <#Nodes on Supply Air Path>,<Number of Nodes>
! <Supply Air Path Node>,<Node Type>,<Node Count>,<Node Name>,<AirLoopHVAC Name>
#Nodes on Supply Air Path,2
   Supply Air Path Node,Inlet Node,1,LOBBY_2_Z15_ZONEEQUIPMENTINLET,LOBBY_2_Z15_AIRLOOP
   Supply Air Path Node,Outlet Node,2,LOBBY_2_Z15_TERMINALINLET,LOBBY_2_Z15_AIRLOOP
 Supply Air Path,16,CONFERENCE_2_Z16,CONFERENCE_2_Z16_AIRLOOP
   #Components on Supply Air Path,1
   Supply Air Path Component,1,AIRLOOPHVAC:ZONESPLITTER,CONFERENCE_2_Z16_SUPPLYSPLITTER,CONFERENCE_2_Z16_AIRLOOP
     #Outlet Nodes on Supply Air Path Component,1
     Supply Air Path Component Nodes,1,AIRLOOPHVAC:ZONESPLITTER,CONFERENCE_2_Z16_SUPPLYSPLITTER,CONFERENCE_2_Z16_ZONEEQUIPMENTINLET,CONFERENCE_2_Z16_TERMINALINLET,CONFERENCE_2_Z16_AIRLOOP
! <#Nodes on Supply Air Path>,<Number of Nodes>
! <Supply Air Path Node>,<Node Type>,<Node Count>,<Node Name>,<AirLoopHVAC Name>
#Nodes on Supply Air Path,2
   Supply Air Path Node,Inlet Node,1,CONFERENCE_2_Z16_ZONEEQUIPMENTINLET,CONFERENCE_2_Z16_AIRLOOP
   Supply Air Path Node,Outlet Node,2,CONFERENCE_2_Z16_TERMINALINLET,CONFERENCE_2_Z16_AIRLOOP
 Supply Air Path,17,BREAK_ROOM_2_Z17,BREAK_ROOM_2_Z17_AIRLOOP
   #Components on Supply Air Path,1
   Supply Air Path Component,1,AIRLOOPHVAC:ZONESPLITTER,BREAK_ROOM_2_Z17_SUPPLYSPLITTER,BREAK_ROOM_2_Z17_AIRLOOP
     #Outlet Nodes on Supply Air Path Component,1
     Supply Air Path Component Nodes,1,AIRLOOPHVAC:ZONESPLITTER,BREAK_ROOM_2_Z17_SUPPLYSPLITTER,BREAK_ROOM_2_Z17_ZONEEQUIPMENTINLET,BREAK_ROOM_2_Z17_TERMINALINLET,BREAK_ROOM_2_Z17_AIRLOOP
! <#Nodes on Supply Air Path>,<Number of Nodes>
! <Supply Air Path Node>,<Node Type>,<Node Count>,<Node Name>,<AirLoopHVAC Name>
#Nodes on Supply Air Path,2
   Supply Air Path Node,Inlet Node,1,BREAK_ROOM_2_Z17_ZONEEQUIPMENTINLET,BREAK_ROOM_2_Z17_AIRLOOP
   Supply Air Path Node,Outlet Node,2,BREAK_ROOM_2_Z17_TERMINALINLET,BREAK_ROOM_2_Z17_AIRLOOP
 Supply Air Path,18,MECHANICAL_2_Z18,MECHANICAL_2_Z18_AIRLOOP
   #Components on Supply Air Path,1
   Supply Air Path Component,1,AIRLOOPHVAC:ZONESPLITTER,MECHANICAL_2_Z18_SUPPLYSPLITTER,MECHANICAL_2_Z18_AIRLOOP
     #Outlet Nodes on Supply Air Path Component,1
     Supply Air Path Component Nodes,1,AIRLOOPHVAC:ZONESPLITTER,MECHANICAL_2_Z18_SUPPLYSPLITTER,MECHANICAL_2_Z18_ZONEEQUIPMENTINLET,MECHANICAL_2_Z18_TERMINALINLET,MECHANICAL_2_Z18_AIRLOOP
! <#Nodes on Supply Air Path>,<Number of Nodes>
! <Supply Air Path Node>,<Node Type>,<Node Count>,<Node Name>,<AirLoopHVAC Name>
#Nodes on Supply Air Path,2
   Supply Air Path Node,Inlet Node,1,MECHANICAL_2_Z18_ZONEEQUIPMENTINLET,MECHANICAL_2_Z18_AIRLOOP
   Supply Air Path Node,Outlet Node,2,MECHANICAL_2_Z18_TERMINALINLET,MECHANICAL_2_Z18_AIRLOOP
 Supply Air Path,19,OFFICE_OPEN_2_Z19,OFFICE_OPEN_2_Z19_AIRLOOP
   #Components on Supply Air Path,1
   Supply Air Path Component,1,AIRLOOPHVAC:ZONESPLITTER,OFFICE_OPEN_2_Z19_SUPPLYSPLITTER,OFFICE_OPEN_2_Z19_AIRLOOP
     #Outlet Nodes on Supply Air Path Component,1
     Supply Air Path Component Nodes,1,AIRLOOPHVAC:ZONESPLITTER,OFFICE_OPEN_2_Z19_SUPPLYSPLITTER,OFFICE_OPEN_2_Z19_ZONEEQUIPMENTINLET,OFFICE_OPEN_2_Z19_TERMINALINLET,OFFICE_OPEN_2_Z19_AIRLOOP
! <#Nodes on Supply Air Path>,<Number of Nodes>
! <Supply Air Path Node>,<Node Type>,<Node Count>,<Node Name>,<AirLoopHVAC Name>
#Nodes on Supply Air Path,2
   Supply Air Path Node,Inlet Node,1,OFFICE_OPEN_2_Z19_ZONEEQUIPMENTINLET,OFFICE_OPEN_2_Z19_AIRLOOP
   Supply Air Path Node,Outlet Node,2,OFFICE_OPEN_2_Z19_TERMINALINLET,OFFICE_OPEN_2_Z19_AIRLOOP
 Supply Air Path,20,OFFICE_PRIVATE_2_Z20,OFFICE_PRIVATE_2_Z20_AIRLOOP
   #Components on Supply Air Path,1
   Supply Air Path Component,1,AIRLOOPHVAC:ZONESPLITTER,OFFICE_PRIVATE_2_Z20_SUPPLYSPLITTER,OFFICE_PRIVATE_2_Z20_AIRLOOP
     #Outlet Nodes on Supply Air Path Component,1
     Supply Air Path Component Nodes,1,AIRLOOPHVAC:ZONESPLITTER,OFFICE_PRIVATE_2_Z20_SUPPLYSPLITTER,OFFICE_PRIVATE_2_Z20_ZONEEQUIPMENTINLET,OFFICE_PRIVATE_2_Z20_TERMINALINLET,OFFICE_PRIVATE_2_Z20_AIRLOOP
! <#Nodes on Supply Air Path>,<Number of Nodes>
! <Supply Air Path Node>,<Node Type>,<Node Count>,<Node Name>,<AirLoopHVAC Name>
#Nodes on Supply Air Path,2
   Supply Air Path Node,Inlet Node,1,OFFICE_PRIVATE_2_Z20_ZONEEQUIPMENTINLET,OFFICE_PRIVATE_2_Z20_AIRLOOP
   Supply Air Path Node,Outlet Node,2,OFFICE_PRIVATE_2_Z20_TERMINALINLET,OFFICE_PRIVATE_2_Z20_AIRLOOP
 Supply Air Path,21,STORAGE_2_Z21,STORAGE_2_Z21_AIRLOOP
   #Components on Supply Air Path,1
   Supply Air Path Component,1,AIRLOOPHVAC:ZONESPLITTER,STORAGE_2_Z21_SUPPLYSPLITTER,STORAGE_2_Z21_AIRLOOP
     #Outlet Nodes on Supply Air Path Component,1
     Supply Air Path Component Nodes,1,AIRLOOPHVAC:ZONESPLITTER,STORAGE_2_Z21_SUPPLYSPLITTER,STORAGE_2_Z21_ZONEEQUIPMENTINLET,STORAGE_2_Z21_TERMINALINLET,STORAGE_2_Z21_AIRLOOP
! <#Nodes on Supply Air Path>,<Number of Nodes>
! <Supply Air Path Node>,<Node Type>,<Node Count>,<Node Name>,<AirLoopHVAC Name>
#Nodes on Supply Air Path,2
   Supply Air Path Node,Inlet Node,1,STORAGE_2_Z21_ZONEEQUIPMENTINLET,STORAGE_2_Z21_AIRLOOP
   Supply Air Path Node,Outlet Node,2,STORAGE_2_Z21_TERMINALINLET,STORAGE_2_Z21_AIRLOOP
 Supply Air Path,22,CONFERENCE_3_Z22,CONFERENCE_3_Z22_AIRLOOP
   #Components on Supply Air Path,1
   Supply Air Path Component,1,AIRLOOPHVAC:ZONESPLITTER,CONFERENCE_3_Z22_SUPPLYSPLITTER,CONFERENCE_3_Z22_AIRLOOP
     #Outlet Nodes on Supply Air Path Component,1
     Supply Air Path Component Nodes,1,AIRLOOPHVAC:ZONESPLITTER,CONFERENCE_3_Z22_SUPPLYSPLITTER,CONFERENCE_3_Z22_ZONEEQUIPMENTINLET,CONFERENCE_3_Z22_TERMINALINLET,CONFERENCE_3_Z22_AIRLOOP
! <#Nodes on Supply Air Path>,<Number of Nodes>
! <Supply Air Path Node>,<Node Type>,<Node Count>,<Node Name>,<AirLoopHVAC Name>
#Nodes on Supply Air Path,2
   Supply Air Path Node,Inlet Node,1,CONFERENCE_3_Z22_ZONEEQUIPMENTINLET,CONFERENCE_3_Z22_AIRLOOP
   Supply Air Path Node,Outlet Node,2,CONFERENCE_3_Z22_TERMINALINLET,CONFERENCE_3_Z22_AIRLOOP
 Supply Air Path,23,BREAK_ROOM_3_Z23,BREAK_ROOM_3_Z23_AIRLOOP
   #Components on Supply Air Path,1
   Supply Air Path Component,1,AIRLOOPHVAC:ZONESPLITTER,BREAK_ROOM_3_Z23_SUPPLYSPLITTER,BREAK_ROOM_3_Z23_AIRLOOP
     #Outlet Nodes on Supply Air Path Component,1
     Supply Air Path Component Nodes,1,AIRLOOPHVAC:ZONESPLITTER,BREAK_ROOM_3_Z23_SUPPLYSPLITTER,BREAK_ROOM_3_Z23_ZONEEQUIPMENTINLET,BREAK_ROOM_3_Z23_TERMINALINLET,BREAK_ROOM_3_Z23_AIRLOOP
! <#Nodes on Supply Air Path>,<Number of Nodes>
! <Supply Air Path Node>,<Node Type>,<Node Count>,<Node Name>,<AirLoopHVAC Name>
#Nodes on Supply Air Path,2
   Supply Air Path Node,Inlet Node,1,BREAK_ROOM_3_Z23_ZONEEQUIPMENTINLET,BREAK_ROOM_3_Z23_AIRLOOP
   Supply Air Path Node,Outlet Node,2,BREAK_ROOM_3_Z23_TERMINALINLET,BREAK_ROOM_3_Z23_AIRLOOP
 Supply Air Path,24,MECHANICAL_3_Z24,MECHANICAL_3_Z24_AIRLOOP
   #Components on Supply Air Path,1
   Supply Air Path Component,1,AIRLOOPHVAC:ZONESPLITTER,MECHANICAL_3_Z24_SUPPLYSPLITTER,MECHANICAL_3_Z24_AIRLOOP
     #Outlet Nodes on Supply Air Path Component,1
     Supply Air Path Component Nodes,1,AIRLOOPHVAC:ZONESPLITTER,MECHANICAL_3_Z24_SUPPLYSPLITTER,MECHANICAL_3_Z24_ZONEEQUIPMENTINLET,MECHANICAL_3_Z24_TERMINALINLET,MECHANICAL_3_Z24_AIRLOOP
! <#Nodes on Supply Air Path>,<Number of Nodes>
! <Supply Air Path Node>,<Node Type>,<Node Count>,<Node Name>,<AirLoopHVAC Name>
#Nodes on Supply Air Path,2
   Supply Air Path Node,Inlet Node,1,MECHANICAL_3_Z24_ZONEEQUIPMENTINLET,MECHANICAL_3_Z24_AIRLOOP
   Supply Air Path Node,Outlet Node,2,MECHANICAL_3_Z24_TERMINALINLET,MECHANICAL_3_Z24_AIRLOOP
 Supply Air Path,25,OFFICE_OPEN_3_Z25,OFFICE_OPEN_3_Z25_AIRLOOP
   #Components on Supply Air Path,1
   Supply Air Path Component,1,AIRLOOPHVAC:ZONESPLITTER,OFFICE_OPEN_3_Z25_SUPPLYSPLITTER,OFFICE_OPEN_3_Z25_AIRLOOP
     #Outlet Nodes on Supply Air Path Component,1
     Supply Air Path Component Nodes,1,AIRLOOPHVAC:ZONESPLITTER,OFFICE_OPEN_3_Z25_SUPPLYSPLITTER,OFFICE_OPEN_3_Z25_ZONEEQUIPMENTINLET,OFFICE_OPEN_3_Z25_TERMINALINLET,OFFICE_OPEN_3_Z25_AIRLOOP
! <#Nodes on Supply Air Path>,<Number of Nodes>
! <Supply Air Path Node>,<Node Type>,<Node Count>,<Node Name>,<AirLoopHVAC Name>
#Nodes on Supply Air Path,2
   Supply Air Path Node,Inlet Node,1,OFFICE_OPEN_3_Z25_ZONEEQUIPMENTINLET,OFFICE_OPEN_3_Z25_AIRLOOP
   Supply Air Path Node,Outlet Node,2,OFFICE_OPEN_3_Z25_TERMINALINLET,OFFICE_OPEN_3_Z25_AIRLOOP
 Supply Air Path,26,STORAGE_3_Z26,STORAGE_3_Z26_AIRLOOP
   #Components on Supply Air Path,1
   Supply Air Path Component,1,AIRLOOPHVAC:ZONESPLITTER,STORAGE_3_Z26_SUPPLYSPLITTER,STORAGE_3_Z26_AIRLOOP
     #Outlet Nodes on Supply Air Path Component,1
     Supply Air Path Component Nodes,1,AIRLOOPHVAC:ZONESPLITTER,STORAGE_3_Z26_SUPPLYSPLITTER,STORAGE_3_Z26_ZONEEQUIPMENTINLET,STORAGE_3_Z26_TERMINALINLET,STORAGE_3_Z26_AIRLOOP
! <#Nodes on Supply Air Path>,<Number of Nodes>
! <Supply Air Path Node>,<Node Type>,<Node Count>,<Node Name>,<AirLoopHVAC Name>
#Nodes on Supply Air Path,2
   Supply Air Path Node,Inlet Node,1,STORAGE_3_Z26_ZONEEQUIPMENTINLET,STORAGE_3_Z26_AIRLOOP
   Supply Air Path Node,Outlet Node,2,STORAGE_3_Z26_TERMINALINLET,STORAGE_3_Z26_AIRLOOP
 Supply Air Path,27,LOBBY_4_Z27,LOBBY_4_Z27_AIRLOOP
   #Components on Supply Air Path,1
   Supply Air Path Component,1,AIRLOOPHVAC:ZONESPLITTER,LOBBY_4_Z27_SUPPLYSPLITTER,LOBBY_4_Z27_AIRLOOP
     #Outlet Nodes on Supply Air Path Component,1
     Supply Air Path Component Nodes,1,AIRLOOPHVAC:ZONESPLITTER,LOBBY_4_Z27_SUPPLYSPLITTER,LOBBY_4_Z27_ZONEEQUIPMENTINLET,LOBBY_4_Z27_TERMINALINLET,LOBBY_4_Z27_AIRLOOP
! <#Nodes on Supply Air Path>,<Number of Nodes>
! <Supply Air Path Node>,<Node Type>,<Node Count>,<Node Name>,<AirLoopHVAC Name>
#Nodes on Supply Air Path,2
   Supply Air Path Node,Inlet Node,1,LOBBY_4_Z27_ZONEEQUIPMENTINLET,LOBBY_4_Z27_AIRLOOP
   Supply Air Path Node,Outlet Node,2,LOBBY_4_Z27_TERMINALINLET,LOBBY_4_Z27_AIRLOOP
 Supply Air Path,28,CONFERENCE_4_Z28,CONFERENCE_4_Z28_AIRLOOP
   #Components on Supply Air Path,1
   Supply Air Path Component,1,AIRLOOPHVAC:ZONESPLITTER,CONFERENCE_4_Z28_SUPPLYSPLITTER,CONFERENCE_4_Z28_AIRLOOP
     #Outlet Nodes on Supply Air Path Component,1
     Supply Air Path Component Nodes,1,AIRLOOPHVAC:ZONESPLITTER,CONFERENCE_4_Z28_SUPPLYSPLITTER,CONFERENCE_4_Z28_ZONEEQUIPMENTINLET,CONFERENCE_4_Z28_TERMINALINLET,CONFERENCE_4_Z28_AIRLOOP
! <#Nodes on Supply Air Path>,<Number of Nodes>
! <Supply Air Path Node>,<Node Type>,<Node Count>,<Node Name>,<AirLoopHVAC Name>
#Nodes on Supply Air Path,2
   Supply Air Path Node,Inlet Node,1,CONFERENCE_4_Z28_ZONEEQUIPMENTINLET,CONFERENCE_4_Z28_AIRLOOP
   Supply Air Path Node,Outlet Node,2,CONFERENCE_4_Z28_TERMINALINLET,CONFERENCE_4_Z28_AIRLOOP
 Supply Air Path,29,BREAK_ROOM_4_Z29,BREAK_ROOM_4_Z29_AIRLOOP
   #Components on Supply Air Path,1
   Supply Air Path Component,1,AIRLOOPHVAC:ZONESPLITTER,BREAK_ROOM_4_Z29_SUPPLYSPLITTER,BREAK_ROOM_4_Z29_AIRLOOP
     #Outlet Nodes on Supply Air Path Component,1
     Supply Air Path Component Nodes,1,AIRLOOPHVAC:ZONESPLITTER,BREAK_ROOM_4_Z29_SUPPLYSPLITTER,BREAK_ROOM_4_Z29_ZONEEQUIPMENTINLET,BREAK_ROOM_4_Z29_TERMINALINLET,BREAK_ROOM_4_Z29_AIRLOOP
! <#Nodes on Supply Air Path>,<Number of Nodes>
! <Supply Air Path Node>,<Node Type>,<Node Count>,<Node Name>,<AirLoopHVAC Name>
#Nodes on Supply Air Path,2
   Supply Air Path Node,Inlet Node,1,BREAK_ROOM_4_Z29_ZONEEQUIPMENTINLET,BREAK_ROOM_4_Z29_AIRLOOP
   Supply Air Path Node,Outlet Node,2,BREAK_ROOM_4_Z29_TERMINALINLET,BREAK_ROOM_4_Z29_AIRLOOP
 Supply Air Path,30,MECHANICAL_4_Z30,MECHANICAL_4_Z30_AIRLOOP
   #Components on Supply Air Path,1
   Supply Air Path Component,1,AIRLOOPHVAC:ZONESPLITTER,MECHANICAL_4_Z30_SUPPLYSPLITTER,MECHANICAL_4_Z30_AIRLOOP
     #Outlet Nodes on Supply Air Path Component,1
     Supply Air Path Component Nodes,1,AIRLOOPHVAC:ZONESPLITTER,MECHANICAL_4_Z30_SUPPLYSPLITTER,MECHANICAL_4_Z30_ZONEEQUIPMENTINLET,MECHANICAL_4_Z30_TERMINALINLET,MECHANICAL_4_Z30_AIRLOOP
! <#Nodes on Supply Air Path>,<Number of Nodes>
! <Supply Air Path Node>,<Node Type>,<Node Count>,<Node Name>,<AirLoopHVAC Name>
#Nodes on Supply Air Path,2
   Supply Air Path Node,Inlet Node,1,MECHANICAL_4_Z30_ZONEEQUIPMENTINLET,MECHANICAL_4_Z30_AIRLOOP
   Supply Air Path Node,Outlet Node,2,MECHANICAL_4_Z30_TERMINALINLET,MECHANICAL_4_Z30_AIRLOOP
 Supply Air Path,31,OFFICE_OPEN_4_Z31,OFFICE_OPEN_4_Z31_AIRLOOP
   #Components on Supply Air Path,1
   Supply Air Path Component,1,AIRLOOPHVAC:ZONESPLITTER,OFFICE_OPEN_4_Z31_SUPPLYSPLITTER,OFFICE_OPEN_4_Z31_AIRLOOP
     #Outlet Nodes on Supply Air Path Component,1
     Supply Air Path Component Nodes,1,AIRLOOPHVAC:ZONESPLITTER,OFFICE_OPEN_4_Z31_SUPPLYSPLITTER,OFFICE_OPEN_4_Z31_ZONEEQUIPMENTINLET,OFFICE_OPEN_4_Z31_TERMINALINLET,OFFICE_OPEN_4_Z31_AIRLOOP
! <#Nodes on Supply Air Path>,<Number of Nodes>
! <Supply Air Path Node>,<Node Type>,<Node Count>,<Node Name>,<AirLoopHVAC Name>
#Nodes on Supply Air Path,2
   Supply Air Path Node,Inlet Node,1,OFFICE_OPEN_4_Z31_ZONEEQUIPMENTINLET,OFFICE_OPEN_4_Z31_AIRLOOP
   Supply Air Path Node,Outlet Node,2,OFFICE_OPEN_4_Z31_TERMINALINLET,OFFICE_OPEN_4_Z31_AIRLOOP
 Supply Air Path,32,OFFICE_PRIVATE_4_Z32,OFFICE_PRIVATE_4_Z32_AIRLOOP
   #Components on Supply Air Path,1
   Supply Air Path Component,1,AIRLOOPHVAC:ZONESPLITTER,OFFICE_PRIVATE_4_Z32_SUPPLYSPLITTER,OFFICE_PRIVATE_4_Z32_AIRLOOP
     #Outlet Nodes on Supply Air Path Component,1
     Supply Air Path Component Nodes,1,AIRLOOPHVAC:ZONESPLITTER,OFFICE_PRIVATE_4_Z32_SUPPLYSPLITTER,OFFICE_PRIVATE_4_Z32_ZONEEQUIPMENTINLET,OFFICE_PRIVATE_4_Z32_TERMINALINLET,OFFICE_PRIVATE_4_Z32_AIRLOOP
! <#Nodes on Supply Air Path>,<Number of Nodes>
! <Supply Air Path Node>,<Node Type>,<Node Count>,<Node Name>,<AirLoopHVAC Name>
#Nodes on Supply Air Path,2
   Supply Air Path Node,Inlet Node,1,OFFICE_PRIVATE_4_Z32_ZONEEQUIPMENTINLET,OFFICE_PRIVATE_4_Z32_AIRLOOP
   Supply Air Path Node,Outlet Node,2,OFFICE_PRIVATE_4_Z32_TERMINALINLET,OFFICE_PRIVATE_4_Z32_AIRLOOP
 Supply Air Path,33,STORAGE_4_Z33,STORAGE_4_Z33_AIRLOOP
   #Components on Supply Air Path,1
   Supply Air Path Component,1,AIRLOOPHVAC:ZONESPLITTER,STORAGE_4_Z33_SUPPLYSPLITTER,STORAGE_4_Z33_AIRLOOP
     #Outlet Nodes on Supply Air Path Component,1
     Supply Air Path Component Nodes,1,AIRLOOPHVAC:ZONESPLITTER,STORAGE_4_Z33_SUPPLYSPLITTER,STORAGE_4_Z33_ZONEEQUIPMENTINLET,STORAGE_4_Z33_TERMINALINLET,STORAGE_4_Z33_AIRLOOP
! <#Nodes on Supply Air Path>,<Number of Nodes>
! <Supply Air Path Node>,<Node Type>,<Node Count>,<Node Name>,<AirLoopHVAC Name>
#Nodes on Supply Air Path,2
   Supply Air Path Node,Inlet Node,1,STORAGE_4_Z33_ZONEEQUIPMENTINLET,STORAGE_4_Z33_AIRLOOP
   Supply Air Path Node,Outlet Node,2,STORAGE_4_Z33_TERMINALINLET,STORAGE_4_Z33_AIRLOOP
! ===============================================================
! <#Return Air Paths>,<Number of Return Air Paths>
 #Return Air Paths,33
! <Return Air Path>,<Return Air Path Count>,<Return Air Path Name>,<AirLoopHVAC Name>
! <#Components on Return Air Path>,<Number of Components>
! <Return Air Path Component>,<Component Count>,<Component Type>,<Component Name>,<AirLoopHVAC Name>
! <#Inlet Nodes on Return Air Path Component>,<Number of Nodes>
! <Return Air Path Component Nodes>,<Node Count>,<Component Type>,<Component Name>,<Inlet Node Name>,<Outlet Node Name>,<AirLoopHVAC Name>
 Return Air Path,1,LOBBY_0_Z1_RETURNAIRPATH,LOBBY_0_Z1_AIRLOOP
   #Components on Return Air Path,1
   Return Air Path Component,1,AIRLOOPHVAC:ZONEMIXER,LOBBY_0_Z1_RETURNAIRMIXER,LOBBY_0_Z1_AIRLOOP
     #Inlet Nodes on Return Air Path Component,1
     Return Air Path Component Nodes,1,AIRLOOPHVAC:ZONEMIXER,LOBBY_0_Z1_RETURNAIRMIXER,LOBBY_0_Z1_RETURNAIR,LOBBY_0_Z1_ZONEEQUIPMENTOUTLETNODE,LOBBY_0_Z1_AIRLOOP
! <#Nodes on Return Air Path>,<Number of Nodes>
! <Return Air Path Node>,<Node Type>,<Node Count>,<Node Name>,<AirLoopHVAC Name>
   #Nodes on Return Air Path,2
   Return Air Path Node,Outlet Node,1,LOBBY_0_Z1_ZONEEQUIPMENTOUTLETNODE,LOBBY_0_Z1_AIRLOOP
   Return Air Path Node,Inlet Node,2,LOBBY_0_Z1_RETURNAIR,LOBBY_0_Z1_AIRLOOP
 Return Air Path,2,CONFERENCE_0_Z2_RETURNAIRPATH,CONFERENCE_0_Z2_AIRLOOP
   #Components on Return Air Path,1
   Return Air Path Component,1,AIRLOOPHVAC:ZONEMIXER,CONFERENCE_0_Z2_RETURNAIRMIXER,CONFERENCE_0_Z2_AIRLOOP
     #Inlet Nodes on Return Air Path Component,1
     Return Air Path Component Nodes,1,AIRLOOPHVAC:ZONEMIXER,CONFERENCE_0_Z2_RETURNAIRMIXER,CONFERENCE_0_Z2_RETURNAIR,CONFERENCE_0_Z2_ZONEEQUIPMENTOUTLETNODE,CONFERENCE_0_Z2_AIRLOOP
! <#Nodes on Return Air Path>,<Number of Nodes>
! <Return Air Path Node>,<Node Type>,<Node Count>,<Node Name>,<AirLoopHVAC Name>
   #Nodes on Return Air Path,2
   Return Air Path Node,Outlet Node,1,CONFERENCE_0_Z2_ZONEEQUIPMENTOUTLETNODE,CONFERENCE_0_Z2_AIRLOOP
   Return Air Path Node,Inlet Node,2,CONFERENCE_0_Z2_RETURNAIR,CONFERENCE_0_Z2_AIRLOOP
 Return Air Path,3,BREAK_ROOM_0_Z3_RETURNAIRPATH,BREAK_ROOM_0_Z3_AIRLOOP
   #Components on Return Air Path,1
   Return Air Path Component,1,AIRLOOPHVAC:ZONEMIXER,BREAK_ROOM_0_Z3_RETURNAIRMIXER,BREAK_ROOM_0_Z3_AIRLOOP
     #Inlet Nodes on Return Air Path Component,1
     Return Air Path Component Nodes,1,AIRLOOPHVAC:ZONEMIXER,BREAK_ROOM_0_Z3_RETURNAIRMIXER,BREAK_ROOM_0_Z3_RETURNAIR,BREAK_ROOM_0_Z3_ZONEEQUIPMENTOUTLETNODE,BREAK_ROOM_0_Z3_AIRLOOP
! <#Nodes on Return Air Path>,<Number of Nodes>
! <Return Air Path Node>,<Node Type>,<Node Count>,<Node Name>,<AirLoopHVAC Name>
   #Nodes on Return Air Path,2
   Return Air Path Node,Outlet Node,1,BREAK_ROOM_0_Z3_ZONEEQUIPMENTOUTLETNODE,BREAK_ROOM_0_Z3_AIRLOOP
   Return Air Path Node,Inlet Node,2,BREAK_ROOM_0_Z3_RETURNAIR,BREAK_ROOM_0_Z3_AIRLOOP
 Return Air Path,4,MECHANICAL_0_Z4_RETURNAIRPATH,MECHANICAL_0_Z4_AIRLOOP
   #Components on Return Air Path,1
   Return Air Path Component,1,AIRLOOPHVAC:ZONEMIXER,MECHANICAL_0_Z4_RETURNAIRMIXER,MECHANICAL_0_Z4_AIRLOOP
     #Inlet Nodes on Return Air Path Component,1
     Return Air Path Component Nodes,1,AIRLOOPHVAC:ZONEMIXER,MECHANICAL_0_Z4_RETURNAIRMIXER,MECHANICAL_0_Z4_RETURNAIR,MECHANICAL_0_Z4_ZONEEQUIPMENTOUTLETNODE,MECHANICAL_0_Z4_AIRLOOP
! <#Nodes on Return Air Path>,<Number of Nodes>
! <Return Air Path Node>,<Node Type>,<Node Count>,<Node Name>,<AirLoopHVAC Name>
   #Nodes on Return Air Path,2
   Return Air Path Node,Outlet Node,1,MECHANICAL_0_Z4_ZONEEQUIPMENTOUTLETNODE,MECHANICAL_0_Z4_AIRLOOP
   Return Air Path Node,Inlet Node,2,MECHANICAL_0_Z4_RETURNAIR,MECHANICAL_0_Z4_AIRLOOP
 Return Air Path,5,OFFICE_OPEN_0_Z5_RETURNAIRPATH,OFFICE_OPEN_0_Z5_AIRLOOP
   #Components on Return Air Path,1
   Return Air Path Component,1,AIRLOOPHVAC:ZONEMIXER,OFFICE_OPEN_0_Z5_RETURNAIRMIXER,OFFICE_OPEN_0_Z5_AIRLOOP
     #Inlet Nodes on Return Air Path Component,1
     Return Air Path Component Nodes,1,AIRLOOPHVAC:ZONEMIXER,OFFICE_OPEN_0_Z5_RETURNAIRMIXER,OFFICE_OPEN_0_Z5_RETURNAIR,OFFICE_OPEN_0_Z5_ZONEEQUIPMENTOUTLETNODE,OFFICE_OPEN_0_Z5_AIRLOOP
! <#Nodes on Return Air Path>,<Number of Nodes>
! <Return Air Path Node>,<Node Type>,<Node Count>,<Node Name>,<AirLoopHVAC Name>
   #Nodes on Return Air Path,2
   Return Air Path Node,Outlet Node,1,OFFICE_OPEN_0_Z5_ZONEEQUIPMENTOUTLETNODE,OFFICE_OPEN_0_Z5_AIRLOOP
   Return Air Path Node,Inlet Node,2,OFFICE_OPEN_0_Z5_RETURNAIR,OFFICE_OPEN_0_Z5_AIRLOOP
 Return Air Path,6,OFFICE_PRIVATE_0_Z6_RETURNAIRPATH,OFFICE_PRIVATE_0_Z6_AIRLOOP
   #Components on Return Air Path,1
   Return Air Path Component,1,AIRLOOPHVAC:ZONEMIXER,OFFICE_PRIVATE_0_Z6_RETURNAIRMIXER,OFFICE_PRIVATE_0_Z6_AIRLOOP
     #Inlet Nodes on Return Air Path Component,1
     Return Air Path Component Nodes,1,AIRLOOPHVAC:ZONEMIXER,OFFICE_PRIVATE_0_Z6_RETURNAIRMIXER,OFFICE_PRIVATE_0_Z6_RETURNAIR,OFFICE_PRIVATE_0_Z6_ZONEEQUIPMENTOUTLETNODE,OFFICE_PRIVATE_0_Z6_AIRLOOP
! <#Nodes on Return Air Path>,<Number of Nodes>
! <Return Air Path Node>,<Node Type>,<Node Count>,<Node Name>,<AirLoopHVAC Name>
   #Nodes on Return Air Path,2
   Return Air Path Node,Outlet Node,1,OFFICE_PRIVATE_0_Z6_ZONEEQUIPMENTOUTLETNODE,OFFICE_PRIVATE_0_Z6_AIRLOOP
   Return Air Path Node,Inlet Node,2,OFFICE_PRIVATE_0_Z6_RETURNAIR,OFFICE_PRIVATE_0_Z6_AIRLOOP
 Return Air Path,7,STORAGE_0_Z7_RETURNAIRPATH,STORAGE_0_Z7_AIRLOOP
   #Components on Return Air Path,1
   Return Air Path Component,1,AIRLOOPHVAC:ZONEMIXER,STORAGE_0_Z7_RETURNAIRMIXER,STORAGE_0_Z7_AIRLOOP
     #Inlet Nodes on Return Air Path Component,1
     Return Air Path Component Nodes,1,AIRLOOPHVAC:ZONEMIXER,STORAGE_0_Z7_RETURNAIRMIXER,STORAGE_0_Z7_RETURNAIR,STORAGE_0_Z7_ZONEEQUIPMENTOUTLETNODE,STORAGE_0_Z7_AIRLOOP
! <#Nodes on Return Air Path>,<Number of Nodes>
! <Return Air Path Node>,<Node Type>,<Node Count>,<Node Name>,<AirLoopHVAC Name>
   #Nodes on Return Air Path,2
   Return Air Path Node,Outlet Node,1,STORAGE_0_Z7_ZONEEQUIPMENTOUTLETNODE,STORAGE_0_Z7_AIRLOOP
   Return Air Path Node,Inlet Node,2,STORAGE_0_Z7_RETURNAIR,STORAGE_0_Z7_AIRLOOP
 Return Air Path,8,LOBBY_1_Z8_RETURNAIRPATH,LOBBY_1_Z8_AIRLOOP
   #Components on Return Air Path,1
   Return Air Path Component,1,AIRLOOPHVAC:ZONEMIXER,LOBBY_1_Z8_RETURNAIRMIXER,LOBBY_1_Z8_AIRLOOP
     #Inlet Nodes on Return Air Path Component,1
     Return Air Path Component Nodes,1,AIRLOOPHVAC:ZONEMIXER,LOBBY_1_Z8_RETURNAIRMIXER,LOBBY_1_Z8_RETURNAIR,LOBBY_1_Z8_ZONEEQUIPMENTOUTLETNODE,LOBBY_1_Z8_AIRLOOP
! <#Nodes on Return Air Path>,<Number of Nodes>
! <Return Air Path Node>,<Node Type>,<Node Count>,<Node Name>,<AirLoopHVAC Name>
   #Nodes on Return Air Path,2
   Return Air Path Node,Outlet Node,1,LOBBY_1_Z8_ZONEEQUIPMENTOUTLETNODE,LOBBY_1_Z8_AIRLOOP
   Return Air Path Node,Inlet Node,2,LOBBY_1_Z8_RETURNAIR,LOBBY_1_Z8_AIRLOOP
 Return Air Path,9,CONFERENCE_1_Z9_RETURNAIRPATH,CONFERENCE_1_Z9_AIRLOOP
   #Components on Return Air Path,1
   Return Air Path Component,1,AIRLOOPHVAC:ZONEMIXER,CONFERENCE_1_Z9_RETURNAIRMIXER,CONFERENCE_1_Z9_AIRLOOP
     #Inlet Nodes on Return Air Path Component,1
     Return Air Path Component Nodes,1,AIRLOOPHVAC:ZONEMIXER,CONFERENCE_1_Z9_RETURNAIRMIXER,CONFERENCE_1_Z9_RETURNAIR,CONFERENCE_1_Z9_ZONEEQUIPMENTOUTLETNODE,CONFERENCE_1_Z9_AIRLOOP
! <#Nodes on Return Air Path>,<Number of Nodes>
! <Return Air Path Node>,<Node Type>,<Node Count>,<Node Name>,<AirLoopHVAC Name>
   #Nodes on Return Air Path,2
   Return Air Path Node,Outlet Node,1,CONFERENCE_1_Z9_ZONEEQUIPMENTOUTLETNODE,CONFERENCE_1_Z9_AIRLOOP
   Return Air Path Node,Inlet Node,2,CONFERENCE_1_Z9_RETURNAIR,CONFERENCE_1_Z9_AIRLOOP
 Return Air Path,10,BREAK_ROOM_1_Z10_RETURNAIRPATH,BREAK_ROOM_1_Z10_AIRLOOP
   #Components on Return Air Path,1
   Return Air Path Component,1,AIRLOOPHVAC:ZONEMIXER,BREAK_ROOM_1_Z10_RETURNAIRMIXER,BREAK_ROOM_1_Z10_AIRLOOP
     #Inlet Nodes on Return Air Path Component,1
     Return Air Path Component Nodes,1,AIRLOOPHVAC:ZONEMIXER,BREAK_ROOM_1_Z10_RETURNAIRMIXER,BREAK_ROOM_1_Z10_RETURNAIR,BREAK_ROOM_1_Z10_ZONEEQUIPMENTOUTLETNODE,BREAK_ROOM_1_Z10_AIRLOOP
! <#Nodes on Return Air Path>,<Number of Nodes>
! <Return Air Path Node>,<Node Type>,<Node Count>,<Node Name>,<AirLoopHVAC Name>
   #Nodes on Return Air Path,2
   Return Air Path Node,Outlet Node,1,BREAK_ROOM_1_Z10_ZONEEQUIPMENTOUTLETNODE,BREAK_ROOM_1_Z10_AIRLOOP
   Return Air Path Node,Inlet Node,2,BREAK_ROOM_1_Z10_RETURNAIR,BREAK_ROOM_1_Z10_AIRLOOP
 Return Air Path,11,MECHANICAL_1_Z11_RETURNAIRPATH,MECHANICAL_1_Z11_AIRLOOP
   #Components on Return Air Path,1
   Return Air Path Component,1,AIRLOOPHVAC:ZONEMIXER,MECHANICAL_1_Z11_RETURNAIRMIXER,MECHANICAL_1_Z11_AIRLOOP
     #Inlet Nodes on Return Air Path Component,1
     Return Air Path Component Nodes,1,AIRLOOPHVAC:ZONEMIXER,MECHANICAL_1_Z11_RETURNAIRMIXER,MECHANICAL_1_Z11_RETURNAIR,MECHANICAL_1_Z11_ZONEEQUIPMENTOUTLETNODE,MECHANICAL_1_Z11_AIRLOOP
! <#Nodes on Return Air Path>,<Number of Nodes>
! <Return Air Path Node>,<Node Type>,<Node Count>,<Node Name>,<AirLoopHVAC Name>
   #Nodes on Return Air Path,2
   Return Air Path Node,Outlet Node,1,MECHANICAL_1_Z11_ZONEEQUIPMENTOUTLETNODE,MECHANICAL_1_Z11_AIRLOOP
   Return Air Path Node,Inlet Node,2,MECHANICAL_1_Z11_RETURNAIR,MECHANICAL_1_Z11_AIRLOOP
 Return Air Path,12,OFFICE_OPEN_1_Z12_RETURNAIRPATH,OFFICE_OPEN_1_Z12_AIRLOOP
   #Components on Return Air Path,1
   Return Air Path Component,1,AIRLOOPHVAC:ZONEMIXER,OFFICE_OPEN_1_Z12_RETURNAIRMIXER,OFFICE_OPEN_1_Z12_AIRLOOP
     #Inlet Nodes on Return Air Path Component,1
     Return Air Path Component Nodes,1,AIRLOOPHVAC:ZONEMIXER,OFFICE_OPEN_1_Z12_RETURNAIRMIXER,OFFICE_OPEN_1_Z12_RETURNAIR,OFFICE_OPEN_1_Z12_ZONEEQUIPMENTOUTLETNODE,OFFICE_OPEN_1_Z12_AIRLOOP
! <#Nodes on Return Air Path>,<Number of Nodes>
! <Return Air Path Node>,<Node Type>,<Node Count>,<Node Name>,<AirLoopHVAC Name>
   #Nodes on Return Air Path,2
   Return Air Path Node,Outlet Node,1,OFFICE_OPEN_1_Z12_ZONEEQUIPMENTOUTLETNODE,OFFICE_OPEN_1_Z12_AIRLOOP
   Return Air Path Node,Inlet Node,2,OFFICE_OPEN_1_Z12_RETURNAIR,OFFICE_OPEN_1_Z12_AIRLOOP
 Return Air Path,13,OFFICE_PRIVATE_1_Z13_RETURNAIRPATH,OFFICE_PRIVATE_1_Z13_AIRLOOP
   #Components on Return Air Path,1
   Return Air Path Component,1,AIRLOOPHVAC:ZONEMIXER,OFFICE_PRIVATE_1_Z13_RETURNAIRMIXER,OFFICE_PRIVATE_1_Z13_AIRLOOP
     #Inlet Nodes on Return Air Path Component,1
     Return Air Path Component Nodes,1,AIRLOOPHVAC:ZONEMIXER,OFFICE_PRIVATE_1_Z13_RETURNAIRMIXER,OFFICE_PRIVATE_1_Z13_RETURNAIR,OFFICE_PRIVATE_1_Z13_ZONEEQUIPMENTOUTLETNODE,OFFICE_PRIVATE_1_Z13_AIRLOOP
! <#Nodes on Return Air Path>,<Number of Nodes>
! <Return Air Path Node>,<Node Type>,<Node Count>,<Node Name>,<AirLoopHVAC Name>
   #Nodes on Return Air Path,2
   Return Air Path Node,Outlet Node,1,OFFICE_PRIVATE_1_Z13_ZONEEQUIPMENTOUTLETNODE,OFFICE_PRIVATE_1_Z13_AIRLOOP
   Return Air Path Node,Inlet Node,2,OFFICE_PRIVATE_1_Z13_RETURNAIR,OFFICE_PRIVATE_1_Z13_AIRLOOP
 Return Air Path,14,STORAGE_1_Z14_RETURNAIRPATH,STORAGE_1_Z14_AIRLOOP
   #Components on Return Air Path,1
   Return Air Path Component,1,AIRLOOPHVAC:ZONEMIXER,STORAGE_1_Z14_RETURNAIRMIXER,STORAGE_1_Z14_AIRLOOP
     #Inlet Nodes on Return Air Path Component,1
     Return Air Path Component Nodes,1,AIRLOOPHVAC:ZONEMIXER,STORAGE_1_Z14_RETURNAIRMIXER,STORAGE_1_Z14_RETURNAIR,STORAGE_1_Z14_ZONEEQUIPMENTOUTLETNODE,STORAGE_1_Z14_AIRLOOP
! <#Nodes on Return Air Path>,<Number of Nodes>
! <Return Air Path Node>,<Node Type>,<Node Count>,<Node Name>,<AirLoopHVAC Name>
   #Nodes on Return Air Path,2
   Return Air Path Node,Outlet Node,1,STORAGE_1_Z14_ZONEEQUIPMENTOUTLETNODE,STORAGE_1_Z14_AIRLOOP
   Return Air Path Node,Inlet Node,2,STORAGE_1_Z14_RETURNAIR,STORAGE_1_Z14_AIRLOOP
 Return Air Path,15,LOBBY_2_Z15_RETURNAIRPATH,LOBBY_2_Z15_AIRLOOP
   #Components on Return Air Path,1
   Return Air Path Component,1,AIRLOOPHVAC:ZONEMIXER,LOBBY_2_Z15_RETURNAIRMIXER,LOBBY_2_Z15_AIRLOOP
     #Inlet Nodes on Return Air Path Component,1
     Return Air Path Component Nodes,1,AIRLOOPHVAC:ZONEMIXER,LOBBY_2_Z15_RETURNAIRMIXER,LOBBY_2_Z15_RETURNAIR,LOBBY_2_Z15_ZONEEQUIPMENTOUTLETNODE,LOBBY_2_Z15_AIRLOOP
! <#Nodes on Return Air Path>,<Number of Nodes>
! <Return Air Path Node>,<Node Type>,<Node Count>,<Node Name>,<AirLoopHVAC Name>
   #Nodes on Return Air Path,2
   Return Air Path Node,Outlet Node,1,LOBBY_2_Z15_ZONEEQUIPMENTOUTLETNODE,LOBBY_2_Z15_AIRLOOP
   Return Air Path Node,Inlet Node,2,LOBBY_2_Z15_RETURNAIR,LOBBY_2_Z15_AIRLOOP
 Return Air Path,16,CONFERENCE_2_Z16_RETURNAIRPATH,CONFERENCE_2_Z16_AIRLOOP
   #Components on Return Air Path,1
   Return Air Path Component,1,AIRLOOPHVAC:ZONEMIXER,CONFERENCE_2_Z16_RETURNAIRMIXER,CONFERENCE_2_Z16_AIRLOOP
     #Inlet Nodes on Return Air Path Component,1
     Return Air Path Component Nodes,1,AIRLOOPHVAC:ZONEMIXER,CONFERENCE_2_Z16_RETURNAIRMIXER,CONFERENCE_2_Z16_RETURNAIR,CONFERENCE_2_Z16_ZONEEQUIPMENTOUTLETNODE,CONFERENCE_2_Z16_AIRLOOP
! <#Nodes on Return Air Path>,<Number of Nodes>
! <Return Air Path Node>,<Node Type>,<Node Count>,<Node Name>,<AirLoopHVAC Name>
   #Nodes on Return Air Path,2
   Return Air Path Node,Outlet Node,1,CONFERENCE_2_Z16_ZONEEQUIPMENTOUTLETNODE,CONFERENCE_2_Z16_AIRLOOP
   Return Air Path Node,Inlet Node,2,CONFERENCE_2_Z16_RETURNAIR,CONFERENCE_2_Z16_AIRLOOP
 Return Air Path,17,BREAK_ROOM_2_Z17_RETURNAIRPATH,BREAK_ROOM_2_Z17_AIRLOOP
   #Components on Return Air Path,1
   Return Air Path Component,1,AIRLOOPHVAC:ZONEMIXER,BREAK_ROOM_2_Z17_RETURNAIRMIXER,BREAK_ROOM_2_Z17_AIRLOOP
     #Inlet Nodes on Return Air Path Component,1
     Return Air Path Component Nodes,1,AIRLOOPHVAC:ZONEMIXER,BREAK_ROOM_2_Z17_RETURNAIRMIXER,BREAK_ROOM_2_Z17_RETURNAIR,BREAK_ROOM_2_Z17_ZONEEQUIPMENTOUTLETNODE,BREAK_ROOM_2_Z17_AIRLOOP
! <#Nodes on Return Air Path>,<Number of Nodes>
! <Return Air Path Node>,<Node Type>,<Node Count>,<Node Name>,<AirLoopHVAC Name>
   #Nodes on Return Air Path,2
   Return Air Path Node,Outlet Node,1,BREAK_ROOM_2_Z17_ZONEEQUIPMENTOUTLETNODE,BREAK_ROOM_2_Z17_AIRLOOP
   Return Air Path Node,Inlet Node,2,BREAK_ROOM_2_Z17_RETURNAIR,BREAK_ROOM_2_Z17_AIRLOOP
 Return Air Path,18,MECHANICAL_2_Z18_RETURNAIRPATH,MECHANICAL_2_Z18_AIRLOOP
   #Components on Return Air Path,1
   Return Air Path Component,1,AIRLOOPHVAC:ZONEMIXER,MECHANICAL_2_Z18_RETURNAIRMIXER,MECHANICAL_2_Z18_AIRLOOP
     #Inlet Nodes on Return Air Path Component,1
     Return Air Path Component Nodes,1,AIRLOOPHVAC:ZONEMIXER,MECHANICAL_2_Z18_RETURNAIRMIXER,MECHANICAL_2_Z18_RETURNAIR,MECHANICAL_2_Z18_ZONEEQUIPMENTOUTLETNODE,MECHANICAL_2_Z18_AIRLOOP
! <#Nodes on Return Air Path>,<Number of Nodes>
! <Return Air Path Node>,<Node Type>,<Node Count>,<Node Name>,<AirLoopHVAC Name>
   #Nodes on Return Air Path,2
   Return Air Path Node,Outlet Node,1,MECHANICAL_2_Z18_ZONEEQUIPMENTOUTLETNODE,MECHANICAL_2_Z18_AIRLOOP
   Return Air Path Node,Inlet Node,2,MECHANICAL_2_Z18_RETURNAIR,MECHANICAL_2_Z18_AIRLOOP
 Return Air Path,19,OFFICE_OPEN_2_Z19_RETURNAIRPATH,OFFICE_OPEN_2_Z19_AIRLOOP
   #Components on Return Air Path,1
   Return Air Path Component,1,AIRLOOPHVAC:ZONEMIXER,OFFICE_OPEN_2_Z19_RETURNAIRMIXER,OFFICE_OPEN_2_Z19_AIRLOOP
     #Inlet Nodes on Return Air Path Component,1
     Return Air Path Component Nodes,1,AIRLOOPHVAC:ZONEMIXER,OFFICE_OPEN_2_Z19_RETURNAIRMIXER,OFFICE_OPEN_2_Z19_RETURNAIR,OFFICE_OPEN_2_Z19_ZONEEQUIPMENTOUTLETNODE,OFFICE_OPEN_2_Z19_AIRLOOP
! <#Nodes on Return Air Path>,<Number of Nodes>
! <Return Air Path Node>,<Node Type>,<Node Count>,<Node Name>,<AirLoopHVAC Name>
   #Nodes on Return Air Path,2
   Return Air Path Node,Outlet Node,1,OFFICE_OPEN_2_Z19_ZONEEQUIPMENTOUTLETNODE,OFFICE_OPEN_2_Z19_AIRLOOP
   Return Air Path Node,Inlet Node,2,OFFICE_OPEN_2_Z19_RETURNAIR,OFFICE_OPEN_2_Z19_AIRLOOP
 Return Air Path,20,OFFICE_PRIVATE_2_Z20_RETURNAIRPATH,OFFICE_PRIVATE_2_Z20_AIRLOOP
   #Components on Return Air Path,1
   Return Air Path Component,1,AIRLOOPHVAC:ZONEMIXER,OFFICE_PRIVATE_2_Z20_RETURNAIRMIXER,OFFICE_PRIVATE_2_Z20_AIRLOOP
     #Inlet Nodes on Return Air Path Component,1
     Return Air Path Component Nodes,1,AIRLOOPHVAC:ZONEMIXER,OFFICE_PRIVATE_2_Z20_RETURNAIRMIXER,OFFICE_PRIVATE_2_Z20_RETURNAIR,OFFICE_PRIVATE_2_Z20_ZONEEQUIPMENTOUTLETNODE,OFFICE_PRIVATE_2_Z20_AIRLOOP
! <#Nodes on Return Air Path>,<Number of Nodes>
! <Return Air Path Node>,<Node Type>,<Node Count>,<Node Name>,<AirLoopHVAC Name>
   #Nodes on Return Air Path,2
   Return Air Path Node,Outlet Node,1,OFFICE_PRIVATE_2_Z20_ZONEEQUIPMENTOUTLETNODE,OFFICE_PRIVATE_2_Z20_AIRLOOP
   Return Air Path Node,Inlet Node,2,OFFICE_PRIVATE_2_Z20_RETURNAIR,OFFICE_PRIVATE_2_Z20_AIRLOOP
 Return Air Path,21,STORAGE_2_Z21_RETURNAIRPATH,STORAGE_2_Z21_AIRLOOP
   #Components on Return Air Path,1
   Return Air Path Component,1,AIRLOOPHVAC:ZONEMIXER,STORAGE_2_Z21_RETURNAIRMIXER,STORAGE_2_Z21_AIRLOOP
     #Inlet Nodes on Return Air Path Component,1
     Return Air Path Component Nodes,1,AIRLOOPHVAC:ZONEMIXER,STORAGE_2_Z21_RETURNAIRMIXER,STORAGE_2_Z21_RETURNAIR,STORAGE_2_Z21_ZONEEQUIPMENTOUTLETNODE,STORAGE_2_Z21_AIRLOOP
! <#Nodes on Return Air Path>,<Number of Nodes>
! <Return Air Path Node>,<Node Type>,<Node Count>,<Node Name>,<AirLoopHVAC Name>
   #Nodes on Return Air Path,2
   Return Air Path Node,Outlet Node,1,STORAGE_2_Z21_ZONEEQUIPMENTOUTLETNODE,STORAGE_2_Z21_AIRLOOP
   Return Air Path Node,Inlet Node,2,STORAGE_2_Z21_RETURNAIR,STORAGE_2_Z21_AIRLOOP
 Return Air Path,22,CONFERENCE_3_Z22_RETURNAIRPATH,CONFERENCE_3_Z22_AIRLOOP
   #Components on Return Air Path,1
   Return Air Path Component,1,AIRLOOPHVAC:ZONEMIXER,CONFERENCE_3_Z22_RETURNAIRMIXER,CONFERENCE_3_Z22_AIRLOOP
     #Inlet Nodes on Return Air Path Component,1
     Return Air Path Component Nodes,1,AIRLOOPHVAC:ZONEMIXER,CONFERENCE_3_Z22_RETURNAIRMIXER,CONFERENCE_3_Z22_RETURNAIR,CONFERENCE_3_Z22_ZONEEQUIPMENTOUTLETNODE,CONFERENCE_3_Z22_AIRLOOP
! <#Nodes on Return Air Path>,<Number of Nodes>
! <Return Air Path Node>,<Node Type>,<Node Count>,<Node Name>,<AirLoopHVAC Name>
   #Nodes on Return Air Path,2
   Return Air Path Node,Outlet Node,1,CONFERENCE_3_Z22_ZONEEQUIPMENTOUTLETNODE,CONFERENCE_3_Z22_AIRLOOP
   Return Air Path Node,Inlet Node,2,CONFERENCE_3_Z22_RETURNAIR,CONFERENCE_3_Z22_AIRLOOP
 Return Air Path,23,BREAK_ROOM_3_Z23_RETURNAIRPATH,BREAK_ROOM_3_Z23_AIRLOOP
   #Components on Return Air Path,1
   Return Air Path Component,1,AIRLOOPHVAC:ZONEMIXER,BREAK_ROOM_3_Z23_RETURNAIRMIXER,BREAK_ROOM_3_Z23_AIRLOOP
     #Inlet Nodes on Return Air Path Component,1
     Return Air Path Component Nodes,1,AIRLOOPHVAC:ZONEMIXER,BREAK_ROOM_3_Z23_RETURNAIRMIXER,BREAK_ROOM_3_Z23_RETURNAIR,BREAK_ROOM_3_Z23_ZONEEQUIPMENTOUTLETNODE,BREAK_ROOM_3_Z23_AIRLOOP
! <#Nodes on Return Air Path>,<Number of Nodes>
! <Return Air Path Node>,<Node Type>,<Node Count>,<Node Name>,<AirLoopHVAC Name>
   #Nodes on Return Air Path,2
   Return Air Path Node,Outlet Node,1,BREAK_ROOM_3_Z23_ZONEEQUIPMENTOUTLETNODE,BREAK_ROOM_3_Z23_AIRLOOP
   Return Air Path Node,Inlet Node,2,BREAK_ROOM_3_Z23_RETURNAIR,BREAK_ROOM_3_Z23_AIRLOOP
 Return Air Path,24,MECHANICAL_3_Z24_RETURNAIRPATH,MECHANICAL_3_Z24_AIRLOOP
   #Components on Return Air Path,1
   Return Air Path Component,1,AIRLOOPHVAC:ZONEMIXER,MECHANICAL_3_Z24_RETURNAIRMIXER,MECHANICAL_3_Z24_AIRLOOP
     #Inlet Nodes on Return Air Path Component,1
     Return Air Path Component Nodes,1,AIRLOOPHVAC:ZONEMIXER,MECHANICAL_3_Z24_RETURNAIRMIXER,MECHANICAL_3_Z24_RETURNAIR,MECHANICAL_3_Z24_ZONEEQUIPMENTOUTLETNODE,MECHANICAL_3_Z24_AIRLOOP
! <#Nodes on Return Air Path>,<Number of Nodes>
! <Return Air Path Node>,<Node Type>,<Node Count>,<Node Name>,<AirLoopHVAC Name>
   #Nodes on Return Air Path,2
   Return Air Path Node,Outlet Node,1,MECHANICAL_3_Z24_ZONEEQUIPMENTOUTLETNODE,MECHANICAL_3_Z24_AIRLOOP
   Return Air Path Node,Inlet Node,2,MECHANICAL_3_Z24_RETURNAIR,MECHANICAL_3_Z24_AIRLOOP
 Return Air Path,25,OFFICE_OPEN_3_Z25_RETURNAIRPATH,OFFICE_OPEN_3_Z25_AIRLOOP
   #Components on Return Air Path,1
   Return Air Path Component,1,AIRLOOPHVAC:ZONEMIXER,OFFICE_OPEN_3_Z25_RETURNAIRMIXER,OFFICE_OPEN_3_Z25_AIRLOOP
     #Inlet Nodes on Return Air Path Component,1
     Return Air Path Component Nodes,1,AIRLOOPHVAC:ZONEMIXER,OFFICE_OPEN_3_Z25_RETURNAIRMIXER,OFFICE_OPEN_3_Z25_RETURNAIR,OFFICE_OPEN_3_Z25_ZONEEQUIPMENTOUTLETNODE,OFFICE_OPEN_3_Z25_AIRLOOP
! <#Nodes on Return Air Path>,<Number of Nodes>
! <Return Air Path Node>,<Node Type>,<Node Count>,<Node Name>,<AirLoopHVAC Name>
   #Nodes on Return Air Path,2
   Return Air Path Node,Outlet Node,1,OFFICE_OPEN_3_Z25_ZONEEQUIPMENTOUTLETNODE,OFFICE_OPEN_3_Z25_AIRLOOP
   Return Air Path Node,Inlet Node,2,OFFICE_OPEN_3_Z25_RETURNAIR,OFFICE_OPEN_3_Z25_AIRLOOP
 Return Air Path,26,STORAGE_3_Z26_RETURNAIRPATH,STORAGE_3_Z26_AIRLOOP
   #Components on Return Air Path,1
   Return Air Path Component,1,AIRLOOPHVAC:ZONEMIXER,STORAGE_3_Z26_RETURNAIRMIXER,STORAGE_3_Z26_AIRLOOP
     #Inlet Nodes on Return Air Path Component,1
     Return Air Path Component Nodes,1,AIRLOOPHVAC:ZONEMIXER,STORAGE_3_Z26_RETURNAIRMIXER,STORAGE_3_Z26_RETURNAIR,STORAGE_3_Z26_ZONEEQUIPMENTOUTLETNODE,STORAGE_3_Z26_AIRLOOP
! <#Nodes on Return Air Path>,<Number of Nodes>
! <Return Air Path Node>,<Node Type>,<Node Count>,<Node Name>,<AirLoopHVAC Name>
   #Nodes on Return Air Path,2
   Return Air Path Node,Outlet Node,1,STORAGE_3_Z26_ZONEEQUIPMENTOUTLETNODE,STORAGE_3_Z26_AIRLOOP
   Return Air Path Node,Inlet Node,2,STORAGE_3_Z26_RETURNAIR,STORAGE_3_Z26_AIRLOOP
 Return Air Path,27,LOBBY_4_Z27_RETURNAIRPATH,LOBBY_4_Z27_AIRLOOP
   #Components on Return Air Path,1
   Return Air Path Component,1,AIRLOOPHVAC:ZONEMIXER,LOBBY_4_Z27_RETURNAIRMIXER,LOBBY_4_Z27_AIRLOOP
     #Inlet Nodes on Return Air Path Component,1
     Return Air Path Component Nodes,1,AIRLOOPHVAC:ZONEMIXER,LOBBY_4_Z27_RETURNAIRMIXER,LOBBY_4_Z27_RETURNAIR,LOBBY_4_Z27_ZONEEQUIPMENTOUTLETNODE,LOBBY_4_Z27_AIRLOOP
! <#Nodes on Return Air Path>,<Number of Nodes>
! <Return Air Path Node>,<Node Type>,<Node Count>,<Node Name>,<AirLoopHVAC Name>
   #Nodes on Return Air Path,2
   Return Air Path Node,Outlet Node,1,LOBBY_4_Z27_ZONEEQUIPMENTOUTLETNODE,LOBBY_4_Z27_AIRLOOP
   Return Air Path Node,Inlet Node,2,LOBBY_4_Z27_RETURNAIR,LOBBY_4_Z27_AIRLOOP
 Return Air Path,28,CONFERENCE_4_Z28_RETURNAIRPATH,CONFERENCE_4_Z28_AIRLOOP
   #Components on Return Air Path,1
   Return Air Path Component,1,AIRLOOPHVAC:ZONEMIXER,CONFERENCE_4_Z28_RETURNAIRMIXER,CONFERENCE_4_Z28_AIRLOOP
     #Inlet Nodes on Return Air Path Component,1
     Return Air Path Component Nodes,1,AIRLOOPHVAC:ZONEMIXER,CONFERENCE_4_Z28_RETURNAIRMIXER,CONFERENCE_4_Z28_RETURNAIR,CONFERENCE_4_Z28_ZONEEQUIPMENTOUTLETNODE,CONFERENCE_4_Z28_AIRLOOP
! <#Nodes on Return Air Path>,<Number of Nodes>
! <Return Air Path Node>,<Node Type>,<Node Count>,<Node Name>,<AirLoopHVAC Name>
   #Nodes on Return Air Path,2
   Return Air Path Node,Outlet Node,1,CONFERENCE_4_Z28_ZONEEQUIPMENTOUTLETNODE,CONFERENCE_4_Z28_AIRLOOP
   Return Air Path Node,Inlet Node,2,CONFERENCE_4_Z28_RETURNAIR,CONFERENCE_4_Z28_AIRLOOP
 Return Air Path,29,BREAK_ROOM_4_Z29_RETURNAIRPATH,BREAK_ROOM_4_Z29_AIRLOOP
   #Components on Return Air Path,1
   Return Air Path Component,1,AIRLOOPHVAC:ZONEMIXER,BREAK_ROOM_4_Z29_RETURNAIRMIXER,BREAK_ROOM_4_Z29_AIRLOOP
     #Inlet Nodes on Return Air Path Component,1
     Return Air Path Component Nodes,1,AIRLOOPHVAC:ZONEMIXER,BREAK_ROOM_4_Z29_RETURNAIRMIXER,BREAK_ROOM_4_Z29_RETURNAIR,BREAK_ROOM_4_Z29_ZONEEQUIPMENTOUTLETNODE,BREAK_ROOM_4_Z29_AIRLOOP
! <#Nodes on Return Air Path>,<Number of Nodes>
! <Return Air Path Node>,<Node Type>,<Node Count>,<Node Name>,<AirLoopHVAC Name>
   #Nodes on Return Air Path,2
   Return Air Path Node,Outlet Node,1,BREAK_ROOM_4_Z29_ZONEEQUIPMENTOUTLETNODE,BREAK_ROOM_4_Z29_AIRLOOP
   Return Air Path Node,Inlet Node,2,BREAK_ROOM_4_Z29_RETURNAIR,BREAK_ROOM_4_Z29_AIRLOOP
 Return Air Path,30,MECHANICAL_4_Z30_RETURNAIRPATH,MECHANICAL_4_Z30_AIRLOOP
   #Components on Return Air Path,1
   Return Air Path Component,1,AIRLOOPHVAC:ZONEMIXER,MECHANICAL_4_Z30_RETURNAIRMIXER,MECHANICAL_4_Z30_AIRLOOP
     #Inlet Nodes on Return Air Path Component,1
     Return Air Path Component Nodes,1,AIRLOOPHVAC:ZONEMIXER,MECHANICAL_4_Z30_RETURNAIRMIXER,MECHANICAL_4_Z30_RETURNAIR,MECHANICAL_4_Z30_ZONEEQUIPMENTOUTLETNODE,MECHANICAL_4_Z30_AIRLOOP
! <#Nodes on Return Air Path>,<Number of Nodes>
! <Return Air Path Node>,<Node Type>,<Node Count>,<Node Name>,<AirLoopHVAC Name>
   #Nodes on Return Air Path,2
   Return Air Path Node,Outlet Node,1,MECHANICAL_4_Z30_ZONEEQUIPMENTOUTLETNODE,MECHANICAL_4_Z30_AIRLOOP
   Return Air Path Node,Inlet Node,2,MECHANICAL_4_Z30_RETURNAIR,MECHANICAL_4_Z30_AIRLOOP
 Return Air Path,31,OFFICE_OPEN_4_Z31_RETURNAIRPATH,OFFICE_OPEN_4_Z31_AIRLOOP
   #Components on Return Air Path,1
   Return Air Path Component,1,AIRLOOPHVAC:ZONEMIXER,OFFICE_OPEN_4_Z31_RETURNAIRMIXER,OFFICE_OPEN_4_Z31_AIRLOOP
     #Inlet Nodes on Return Air Path Component,1
     Return Air Path Component Nodes,1,AIRLOOPHVAC:ZONEMIXER,OFFICE_OPEN_4_Z31_RETURNAIRMIXER,OFFICE_OPEN_4_Z31_RETURNAIR,OFFICE_OPEN_4_Z31_ZONEEQUIPMENTOUTLETNODE,OFFICE_OPEN_4_Z31_AIRLOOP
! <#Nodes on Return Air Path>,<Number of Nodes>
! <Return Air Path Node>,<Node Type>,<Node Count>,<Node Name>,<AirLoopHVAC Name>
   #Nodes on Return Air Path,2
   Return Air Path Node,Outlet Node,1,OFFICE_OPEN_4_Z31_ZONEEQUIPMENTOUTLETNODE,OFFICE_OPEN_4_Z31_AIRLOOP
   Return Air Path Node,Inlet Node,2,OFFICE_OPEN_4_Z31_RETURNAIR,OFFICE_OPEN_4_Z31_AIRLOOP
 Return Air Path,32,OFFICE_PRIVATE_4_Z32_RETURNAIRPATH,OFFICE_PRIVATE_4_Z32_AIRLOOP
   #Components on Return Air Path,1
   Return Air Path Component,1,AIRLOOPHVAC:ZONEMIXER,OFFICE_PRIVATE_4_Z32_RETURNAIRMIXER,OFFICE_PRIVATE_4_Z32_AIRLOOP
     #Inlet Nodes on Return Air Path Component,1
     Return Air Path Component Nodes,1,AIRLOOPHVAC:ZONEMIXER,OFFICE_PRIVATE_4_Z32_RETURNAIRMIXER,OFFICE_PRIVATE_4_Z32_RETURNAIR,OFFICE_PRIVATE_4_Z32_ZONEEQUIPMENTOUTLETNODE,OFFICE_PRIVATE_4_Z32_AIRLOOP
! <#Nodes on Return Air Path>,<Number of Nodes>
! <Return Air Path Node>,<Node Type>,<Node Count>,<Node Name>,<AirLoopHVAC Name>
   #Nodes on Return Air Path,2
   Return Air Path Node,Outlet Node,1,OFFICE_PRIVATE_4_Z32_ZONEEQUIPMENTOUTLETNODE,OFFICE_PRIVATE_4_Z32_AIRLOOP
   Return Air Path Node,Inlet Node,2,OFFICE_PRIVATE_4_Z32_RETURNAIR,OFFICE_PRIVATE_4_Z32_AIRLOOP
 Return Air Path,33,STORAGE_4_Z33_RETURNAIRPATH,STORAGE_4_Z33_AIRLOOP
   #Components on Return Air Path,1
[...]
 Non-Parent Node Connection,MECHANICAL_2_Z18_RETURNAIR,AIRLOOPHVAC:ZONEMIXER,MECHANICAL_2_Z18_RETURNAIRMIXER,Inlet,1
 Non-Parent Node Connection,OFFICE_OPEN_2_Z19_ZONEEQUIPMENTOUTLETNODE,AIRLOOPHVAC:ZONEMIXER,OFFICE_OPEN_2_Z19_RETURNAIRMIXER,Outlet,1
 Non-Parent Node Connection,OFFICE_OPEN_2_Z19_RETURNAIR,AIRLOOPHVAC:ZONEMIXER,OFFICE_OPEN_2_Z19_RETURNAIRMIXER,Inlet,1
 Non-Parent Node Connection,OFFICE_PRIVATE_2_Z20_ZONEEQUIPMENTOUTLETNODE,AIRLOOPHVAC:ZONEMIXER,OFFICE_PRIVATE_2_Z20_RETURNAIRMIXER,Outlet,1
 Non-Parent Node Connection,OFFICE_PRIVATE_2_Z20_RETURNAIR,AIRLOOPHVAC:ZONEMIXER,OFFICE_PRIVATE_2_Z20_RETURNAIRMIXER,Inlet,1
 Non-Parent Node Connection,STORAGE_2_Z21_ZONEEQUIPMENTOUTLETNODE,AIRLOOPHVAC:ZONEMIXER,STORAGE_2_Z21_RETURNAIRMIXER,Outlet,1
 Non-Parent Node Connection,STORAGE_2_Z21_RETURNAIR,AIRLOOPHVAC:ZONEMIXER,STORAGE_2_Z21_RETURNAIRMIXER,Inlet,1
 Non-Parent Node Connection,CONFERENCE_3_Z22_ZONEEQUIPMENTOUTLETNODE,AIRLOOPHVAC:ZONEMIXER,CONFERENCE_3_Z22_RETURNAIRMIXER,Outlet,1
 Non-Parent Node Connection,CONFERENCE_3_Z22_RETURNAIR,AIRLOOPHVAC:ZONEMIXER,CONFERENCE_3_Z22_RETURNAIRMIXER,Inlet,1
 Non-Parent Node Connection,BREAK_ROOM_3_Z23_ZONEEQUIPMENTOUTLETNODE,AIRLOOPHVAC:ZONEMIXER,BREAK_ROOM_3_Z23_RETURNAIRMIXER,Outlet,1
 Non-Parent Node Connection,BREAK_ROOM_3_Z23_RETURNAIR,AIRLOOPHVAC:ZONEMIXER,BREAK_ROOM_3_Z23_RETURNAIRMIXER,Inlet,1
 Non-Parent Node Connection,MECHANICAL_3_Z24_ZONEEQUIPMENTOUTLETNODE,AIRLOOPHVAC:ZONEMIXER,MECHANICAL_3_Z24_RETURNAIRMIXER,Outlet,1
 Non-Parent Node Connection,MECHANICAL_3_Z24_RETURNAIR,AIRLOOPHVAC:ZONEMIXER,MECHANICAL_3_Z24_RETURNAIRMIXER,Inlet,1
 Non-Parent Node Connection,OFFICE_OPEN_3_Z25_ZONEEQUIPMENTOUTLETNODE,AIRLOOPHVAC:ZONEMIXER,OFFICE_OPEN_3_Z25_RETURNAIRMIXER,Outlet,1
 Non-Parent Node Connection,OFFICE_OPEN_3_Z25_RETURNAIR,AIRLOOPHVAC:ZONEMIXER,OFFICE_OPEN_3_Z25_RETURNAIRMIXER,Inlet,1
 Non-Parent Node Connection,STORAGE_3_Z26_ZONEEQUIPMENTOUTLETNODE,AIRLOOPHVAC:ZONEMIXER,STORAGE_3_Z26_RETURNAIRMIXER,Outlet,1
 Non-Parent Node Connection,STORAGE_3_Z26_RETURNAIR,AIRLOOPHVAC:ZONEMIXER,STORAGE_3_Z26_RETURNAIRMIXER,Inlet,1
 Non-Parent Node Connection,LOBBY_4_Z27_ZONEEQUIPMENTOUTLETNODE,AIRLOOPHVAC:ZONEMIXER,LOBBY_4_Z27_RETURNAIRMIXER,Outlet,1
 Non-Parent Node Connection,LOBBY_4_Z27_RETURNAIR,AIRLOOPHVAC:ZONEMIXER,LOBBY_4_Z27_RETURNAIRMIXER,Inlet,1
 Non-Parent Node Connection,CONFERENCE_4_Z28_ZONEEQUIPMENTOUTLETNODE,AIRLOOPHVAC:ZONEMIXER,CONFERENCE_4_Z28_RETURNAIRMIXER,Outlet,1
 Non-Parent Node Connection,CONFERENCE_4_Z28_RETURNAIR,AIRLOOPHVAC:ZONEMIXER,CONFERENCE_4_Z28_RETURNAIRMIXER,Inlet,1
 Non-Parent Node Connection,BREAK_ROOM_4_Z29_ZONEEQUIPMENTOUTLETNODE,AIRLOOPHVAC:ZONEMIXER,BREAK_ROOM_4_Z29_RETURNAIRMIXER,Outlet,1
 Non-Parent Node Connection,BREAK_ROOM_4_Z29_RETURNAIR,AIRLOOPHVAC:ZONEMIXER,BREAK_ROOM_4_Z29_RETURNAIRMIXER,Inlet,1
 Non-Parent Node Connection,MECHANICAL_4_Z30_ZONEEQUIPMENTOUTLETNODE,AIRLOOPHVAC:ZONEMIXER,MECHANICAL_4_Z30_RETURNAIRMIXER,Outlet,1
 Non-Parent Node Connection,MECHANICAL_4_Z30_RETURNAIR,AIRLOOPHVAC:ZONEMIXER,MECHANICAL_4_Z30_RETURNAIRMIXER,Inlet,1
 Non-Parent Node Connection,OFFICE_OPEN_4_Z31_ZONEEQUIPMENTOUTLETNODE,AIRLOOPHVAC:ZONEMIXER,OFFICE_OPEN_4_Z31_RETURNAIRMIXER,Outlet,1
 Non-Parent Node Connection,OFFICE_OPEN_4_Z31_RETURNAIR,AIRLOOPHVAC:ZONEMIXER,OFFICE_OPEN_4_Z31_RETURNAIRMIXER,Inlet,1
 Non-Parent Node Connection,OFFICE_PRIVATE_4_Z32_ZONEEQUIPMENTOUTLETNODE,AIRLOOPHVAC:ZONEMIXER,OFFICE_PRIVATE_4_Z32_RETURNAIRMIXER,Outlet,1
 Non-Parent Node Connection,OFFICE_PRIVATE_4_Z32_RETURNAIR,AIRLOOPHVAC:ZONEMIXER,OFFICE_PRIVATE_4_Z32_RETURNAIRMIXER,Inlet,1
 Non-Parent Node Connection,STORAGE_4_Z33_ZONEEQUIPMENTOUTLETNODE,AIRLOOPHVAC:ZONEMIXER,STORAGE_4_Z33_RETURNAIRMIXER,Outlet,1
 Non-Parent Node Connection,STORAGE_4_Z33_RETURNAIR,AIRLOOPHVAC:ZONEMIXER,STORAGE_4_Z33_RETURNAIRMIXER,Inlet,1
 Non-Parent Node Connection,LOBBY_0_Z1_HEATC-FANNODE,FAN:VARIABLEVOLUME,LOBBY_0_Z1_SUPPLYFAN,Inlet,1
 Non-Parent Node Connection,LOBBY_0_Z1_SUPPLYEQUIPMENTOUTLETNODE,FAN:VARIABLEVOLUME,LOBBY_0_Z1_SUPPLYFAN,Outlet,1
 Non-Parent Node Connection,CONFERENCE_0_Z2_HEATC-FANNODE,FAN:VARIABLEVOLUME,CONFERENCE_0_Z2_SUPPLYFAN,Inlet,1
 Non-Parent Node Connection,CONFERENCE_0_Z2_SUPPLYEQUIPMENTOUTLETNODE,FAN:VARIABLEVOLUME,CONFERENCE_0_Z2_SUPPLYFAN,Outlet,1
 Non-Parent Node Connection,BREAK_ROOM_0_Z3_HEATC-FANNODE,FAN:VARIABLEVOLUME,BREAK_ROOM_0_Z3_SUPPLYFAN,Inlet,1
 Non-Parent Node Connection,BREAK_ROOM_0_Z3_SUPPLYEQUIPMENTOUTLETNODE,FAN:VARIABLEVOLUME,BREAK_ROOM_0_Z3_SUPPLYFAN,Outlet,1
 Non-Parent Node Connection,MECHANICAL_0_Z4_HEATC-FANNODE,FAN:VARIABLEVOLUME,MECHANICAL_0_Z4_SUPPLYFAN,Inlet,1
 Non-Parent Node Connection,MECHANICAL_0_Z4_SUPPLYEQUIPMENTOUTLETNODE,FAN:VARIABLEVOLUME,MECHANICAL_0_Z4_SUPPLYFAN,Outlet,1
 Non-Parent Node Connection,OFFICE_OPEN_0_Z5_HEATC-FANNODE,FAN:VARIABLEVOLUME,OFFICE_OPEN_0_Z5_SUPPLYFAN,Inlet,1
 Non-Parent Node Connection,OFFICE_OPEN_0_Z5_SUPPLYEQUIPMENTOUTLETNODE,FAN:VARIABLEVOLUME,OFFICE_OPEN_0_Z5_SUPPLYFAN,Outlet,1
 Non-Parent Node Connection,OFFICE_PRIVATE_0_Z6_HEATC-FANNODE,FAN:VARIABLEVOLUME,OFFICE_PRIVATE_0_Z6_SUPPLYFAN,Inlet,1
 Non-Parent Node Connection,OFFICE_PRIVATE_0_Z6_SUPPLYEQUIPMENTOUTLETNODE,FAN:VARIABLEVOLUME,OFFICE_PRIVATE_0_Z6_SUPPLYFAN,Outlet,1
 Non-Parent Node Connection,STORAGE_0_Z7_HEATC-FANNODE,FAN:VARIABLEVOLUME,STORAGE_0_Z7_SUPPLYFAN,Inlet,1
 Non-Parent Node Connection,STORAGE_0_Z7_SUPPLYEQUIPMENTOUTLETNODE,FAN:VARIABLEVOLUME,STORAGE_0_Z7_SUPPLYFAN,Outlet,1
 Non-Parent Node Connection,LOBBY_1_Z8_HEATC-FANNODE,FAN:VARIABLEVOLUME,LOBBY_1_Z8_SUPPLYFAN,Inlet,1
 Non-Parent Node Connection,LOBBY_1_Z8_SUPPLYEQUIPMENTOUTLETNODE,FAN:VARIABLEVOLUME,LOBBY_1_Z8_SUPPLYFAN,Outlet,1
 Non-Parent Node Connection,CONFERENCE_1_Z9_HEATC-FANNODE,FAN:VARIABLEVOLUME,CONFERENCE_1_Z9_SUPPLYFAN,Inlet,1
 Non-Parent Node Connection,CONFERENCE_1_Z9_SUPPLYEQUIPMENTOUTLETNODE,FAN:VARIABLEVOLUME,CONFERENCE_1_Z9_SUPPLYFAN,Outlet,1
 Non-Parent Node Connection,BREAK_ROOM_1_Z10_HEATC-FANNODE,FAN:VARIABLEVOLUME,BREAK_ROOM_1_Z10_SUPPLYFAN,Inlet,1
 Non-Parent Node Connection,BREAK_ROOM_1_Z10_SUPPLYEQUIPMENTOUTLETNODE,FAN:VARIABLEVOLUME,BREAK_ROOM_1_Z10_SUPPLYFAN,Outlet,1
 Non-Parent Node Connection,MECHANICAL_1_Z11_HEATC-FANNODE,FAN:VARIABLEVOLUME,MECHANICAL_1_Z11_SUPPLYFAN,Inlet,1
 Non-Parent Node Connection,MECHANICAL_1_Z11_SUPPLYEQUIPMENTOUTLETNODE,FAN:VARIABLEVOLUME,MECHANICAL_1_Z11_SUPPLYFAN,Outlet,1
 Non-Parent Node Connection,OFFICE_OPEN_1_Z12_HEATC-FANNODE,FAN:VARIABLEVOLUME,OFFICE_OPEN_1_Z12_SUPPLYFAN,Inlet,1
 Non-Parent Node Connection,OFFICE_OPEN_1_Z12_SUPPLYEQUIPMENTOUTLETNODE,FAN:VARIABLEVOLUME,OFFICE_OPEN_1_Z12_SUPPLYFAN,Outlet,1
 Non-Parent Node Connection,OFFICE_PRIVATE_1_Z13_HEATC-FANNODE,FAN:VARIABLEVOLUME,OFFICE_PRIVATE_1_Z13_SUPPLYFAN,Inlet,1
 Non-Parent Node Connection,OFFICE_PRIVATE_1_Z13_SUPPLYEQUIPMENTOUTLETNODE,FAN:VARIABLEVOLUME,OFFICE_PRIVATE_1_Z13_SUPPLYFAN,Outlet,1
 Non-Parent Node Connection,STORAGE_1_Z14_HEATC-FANNODE,FAN:VARIABLEVOLUME,STORAGE_1_Z14_SUPPLYFAN,Inlet,1
 Non-Parent Node Connection,STORAGE_1_Z14_SUPPLYEQUIPMENTOUTLETNODE,FAN:VARIABLEVOLUME,STORAGE_1_Z14_SUPPLYFAN,Outlet,1
 Non-Parent Node Connection,LOBBY_2_Z15_HEATC-FANNODE,FAN:VARIABLEVOLUME,LOBBY_2_Z15_SUPPLYFAN,Inlet,1
 Non-Parent Node Connection,LOBBY_2_Z15_SUPPLYEQUIPMENTOUTLETNODE,FAN:VARIABLEVOLUME,LOBBY_2_Z15_SUPPLYFAN,Outlet,1
 Non-Parent Node Connection,CONFERENCE_2_Z16_HEATC-FANNODE,FAN:VARIABLEVOLUME,CONFERENCE_2_Z16_SUPPLYFAN,Inlet,1
 Non-Parent Node Connection,CONFERENCE_2_Z16_SUPPLYEQUIPMENTOUTLETNODE,FAN:VARIABLEVOLUME,CONFERENCE_2_Z16_SUPPLYFAN,Outlet,1
 Non-Parent Node Connection,BREAK_ROOM_2_Z17_HEATC-FANNODE,FAN:VARIABLEVOLUME,BREAK_ROOM_2_Z17_SUPPLYFAN,Inlet,1
 Non-Parent Node Connection,BREAK_ROOM_2_Z17_SUPPLYEQUIPMENTOUTLETNODE,FAN:VARIABLEVOLUME,BREAK_ROOM_2_Z17_SUPPLYFAN,Outlet,1
 Non-Parent Node Connection,MECHANICAL_2_Z18_HEATC-FANNODE,FAN:VARIABLEVOLUME,MECHANICAL_2_Z18_SUPPLYFAN,Inlet,1
 Non-Parent Node Connection,MECHANICAL_2_Z18_SUPPLYEQUIPMENTOUTLETNODE,FAN:VARIABLEVOLUME,MECHANICAL_2_Z18_SUPPLYFAN,Outlet,1
 Non-Parent Node Connection,OFFICE_OPEN_2_Z19_HEATC-FANNODE,FAN:VARIABLEVOLUME,OFFICE_OPEN_2_Z19_SUPPLYFAN,Inlet,1
 Non-Parent Node Connection,OFFICE_OPEN_2_Z19_SUPPLYEQUIPMENTOUTLETNODE,FAN:VARIABLEVOLUME,OFFICE_OPEN_2_Z19_SUPPLYFAN,Outlet,1
 Non-Parent Node Connection,OFFICE_PRIVATE_2_Z20_HEATC-FANNODE,FAN:VARIABLEVOLUME,OFFICE_PRIVATE_2_Z20_SUPPLYFAN,Inlet,1
 Non-Parent Node Connection,OFFICE_PRIVATE_2_Z20_SUPPLYEQUIPMENTOUTLETNODE,FAN:VARIABLEVOLUME,OFFICE_PRIVATE_2_Z20_SUPPLYFAN,Outlet,1
 Non-Parent Node Connection,STORAGE_2_Z21_HEATC-FANNODE,FAN:VARIABLEVOLUME,STORAGE_2_Z21_SUPPLYFAN,Inlet,1
 Non-Parent Node Connection,STORAGE_2_Z21_SUPPLYEQUIPMENTOUTLETNODE,FAN:VARIABLEVOLUME,STORAGE_2_Z21_SUPPLYFAN,Outlet,1
 Non-Parent Node Connection,CONFERENCE_3_Z22_HEATC-FANNODE,FAN:VARIABLEVOLUME,CONFERENCE_3_Z22_SUPPLYFAN,Inlet,1
 Non-Parent Node Connection,CONFERENCE_3_Z22_SUPPLYEQUIPMENTOUTLETNODE,FAN:VARIABLEVOLUME,CONFERENCE_3_Z22_SUPPLYFAN,Outlet,1
 Non-Parent Node Connection,BREAK_ROOM_3_Z23_HEATC-FANNODE,FAN:VARIABLEVOLUME,BREAK_ROOM_3_Z23_SUPPLYFAN,Inlet,1
 Non-Parent Node Connection,BREAK_ROOM_3_Z23_SUPPLYEQUIPMENTOUTLETNODE,FAN:VARIABLEVOLUME,BREAK_ROOM_3_Z23_SUPPLYFAN,Outlet,1
 Non-Parent Node Connection,MECHANICAL_3_Z24_HEATC-FANNODE,FAN:VARIABLEVOLUME,MECHANICAL_3_Z24_SUPPLYFAN,Inlet,1
 Non-Parent Node Connection,MECHANICAL_3_Z24_SUPPLYEQUIPMENTOUTLETNODE,FAN:VARIABLEVOLUME,MECHANICAL_3_Z24_SUPPLYFAN,Outlet,1
 Non-Parent Node Connection,OFFICE_OPEN_3_Z25_HEATC-FANNODE,FAN:VARIABLEVOLUME,OFFICE_OPEN_3_Z25_SUPPLYFAN,Inlet,1
 Non-Parent Node Connection,OFFICE_OPEN_3_Z25_SUPPLYEQUIPMENTOUTLETNODE,FAN:VARIABLEVOLUME,OFFICE_OPEN_3_Z25_SUPPLYFAN,Outlet,1
 Non-Parent Node Connection,STORAGE_3_Z26_HEATC-FANNODE,FAN:VARIABLEVOLUME,STORAGE_3_Z26_SUPPLYFAN,Inlet,1
 Non-Parent Node Connection,STORAGE_3_Z26_SUPPLYEQUIPMENTOUTLETNODE,FAN:VARIABLEVOLUME,STORAGE_3_Z26_SUPPLYFAN,Outlet,1
 Non-Parent Node Connection,LOBBY_4_Z27_HEATC-FANNODE,FAN:VARIABLEVOLUME,LOBBY_4_Z27_SUPPLYFAN,Inlet,1
 Non-Parent Node Connection,LOBBY_4_Z27_SUPPLYEQUIPMENTOUTLETNODE,FAN:VARIABLEVOLUME,LOBBY_4_Z27_SUPPLYFAN,Outlet,1
 Non-Parent Node Connection,CONFERENCE_4_Z28_HEATC-FANNODE,FAN:VARIABLEVOLUME,CONFERENCE_4_Z28_SUPPLYFAN,Inlet,1
 Non-Parent Node Connection,CONFERENCE_4_Z28_SUPPLYEQUIPMENTOUTLETNODE,FAN:VARIABLEVOLUME,CONFERENCE_4_Z28_SUPPLYFAN,Outlet,1
 Non-Parent Node Connection,BREAK_ROOM_4_Z29_HEATC-FANNODE,FAN:VARIABLEVOLUME,BREAK_ROOM_4_Z29_SUPPLYFAN,Inlet,1
 Non-Parent Node Connection,BREAK_ROOM_4_Z29_SUPPLYEQUIPMENTOUTLETNODE,FAN:VARIABLEVOLUME,BREAK_ROOM_4_Z29_SUPPLYFAN,Outlet,1
 Non-Parent Node Connection,MECHANICAL_4_Z30_HEATC-FANNODE,FAN:VARIABLEVOLUME,MECHANICAL_4_Z30_SUPPLYFAN,Inlet,1
 Non-Parent Node Connection,MECHANICAL_4_Z30_SUPPLYEQUIPMENTOUTLETNODE,FAN:VARIABLEVOLUME,MECHANICAL_4_Z30_SUPPLYFAN,Outlet,1
 Non-Parent Node Connection,OFFICE_OPEN_4_Z31_HEATC-FANNODE,FAN:VARIABLEVOLUME,OFFICE_OPEN_4_Z31_SUPPLYFAN,Inlet,1
 Non-Parent Node Connection,OFFICE_OPEN_4_Z31_SUPPLYEQUIPMENTOUTLETNODE,FAN:VARIABLEVOLUME,OFFICE_OPEN_4_Z31_SUPPLYFAN,Outlet,1
 Non-Parent Node Connection,OFFICE_PRIVATE_4_Z32_HEATC-FANNODE,FAN:VARIABLEVOLUME,OFFICE_PRIVATE_4_Z32_SUPPLYFAN,Inlet,1
 Non-Parent Node Connection,OFFICE_PRIVATE_4_Z32_SUPPLYEQUIPMENTOUTLETNODE,FAN:VARIABLEVOLUME,OFFICE_PRIVATE_4_Z32_SUPPLYFAN,Outlet,1
 Non-Parent Node Connection,STORAGE_4_Z33_HEATC-FANNODE,FAN:VARIABLEVOLUME,STORAGE_4_Z33_SUPPLYFAN,Inlet,1
 Non-Parent Node Connection,STORAGE_4_Z33_SUPPLYEQUIPMENTOUTLETNODE,FAN:VARIABLEVOLUME,STORAGE_4_Z33_SUPPLYFAN,Outlet,1
 Non-Parent Node Connection,LOBBY_0_Z1_SUPPLYINLET,COIL:COOLING:DX:SINGLESPEED,LOBBY_0_Z1_COOLINGCOILDX,Inlet,1
 Non-Parent Node Connection,LOBBY_0_Z1_COOLC-HEATCNODE,COIL:COOLING:DX:SINGLESPEED,LOBBY_0_Z1_COOLINGCOILDX,Outlet,1
 Non-Parent Node Connection,CONFERENCE_0_Z2_SUPPLYINLET,COIL:COOLING:DX:SINGLESPEED,CONFERENCE_0_Z2_COOLINGCOILDX,Inlet,1
 Non-Parent Node Connection,CONFERENCE_0_Z2_COOLC-HEATCNODE,COIL:COOLING:DX:SINGLESPEED,CONFERENCE_0_Z2_COOLINGCOILDX,Outlet,1
 Non-Parent Node Connection,BREAK_ROOM_0_Z3_SUPPLYINLET,COIL:COOLING:DX:SINGLESPEED,BREAK_ROOM_0_Z3_COOLINGCOILDX,Inlet,1
 Non-Parent Node Connection,BREAK_ROOM_0_Z3_COOLC-HEATCNODE,COIL:COOLING:DX:SINGLESPEED,BREAK_ROOM_0_Z3_COOLINGCOILDX,Outlet,1
 Non-Parent Node Connection,MECHANICAL_0_Z4_SUPPLYINLET,COIL:COOLING:DX:SINGLESPEED,MECHANICAL_0_Z4_COOLINGCOILDX,Inlet,1
 Non-Parent Node Connection,MECHANICAL_0_Z4_COOLC-HEATCNODE,COIL:COOLING:DX:SINGLESPEED,MECHANICAL_0_Z4_COOLINGCOILDX,Outlet,1
 Non-Parent Node Connection,OFFICE_OPEN_0_Z5_SUPPLYINLET,COIL:COOLING:DX:SINGLESPEED,OFFICE_OPEN_0_Z5_COOLINGCOILDX,Inlet,1
 Non-Parent Node Connection,OFFICE_OPEN_0_Z5_COOLC-HEATCNODE,COIL:COOLING:DX:SINGLESPEED,OFFICE_OPEN_0_Z5_COOLINGCOILDX,Outlet,1
 Non-Parent Node Connection,OFFICE_PRIVATE_0_Z6_SUPPLYINLET,COIL:COOLING:DX:SINGLESPEED,OFFICE_PRIVATE_0_Z6_COOLINGCOILDX,Inlet,1
 Non-Parent Node Connection,OFFICE_PRIVATE_0_Z6_COOLC-HEATCNODE,COIL:COOLING:DX:SINGLESPEED,OFFICE_PRIVATE_0_Z6_COOLINGCOILDX,Outlet,1
 Non-Parent Node Connection,STORAGE_0_Z7_SUPPLYINLET,COIL:COOLING:DX:SINGLESPEED,STORAGE_0_Z7_COOLINGCOILDX,Inlet,1
 Non-Parent Node Connection,STORAGE_0_Z7_COOLC-HEATCNODE,COIL:COOLING:DX:SINGLESPEED,STORAGE_0_Z7_COOLINGCOILDX,Outlet,1
 Non-Parent Node Connection,LOBBY_1_Z8_SUPPLYINLET,COIL:COOLING:DX:SINGLESPEED,LOBBY_1_Z8_COOLINGCOILDX,Inlet,1
 Non-Parent Node Connection,LOBBY_1_Z8_COOLC-HEATCNODE,COIL:COOLING:DX:SINGLESPEED,LOBBY_1_Z8_COOLINGCOILDX,Outlet,1
 Non-Parent Node Connection,CONFERENCE_1_Z9_SUPPLYINLET,COIL:COOLING:DX:SINGLESPEED,CONFERENCE_1_Z9_COOLINGCOILDX,Inlet,1
 Non-Parent Node Connection,CONFERENCE_1_Z9_COOLC-HEATCNODE,COIL:COOLING:DX:SINGLESPEED,CONFERENCE_1_Z9_COOLINGCOILDX,Outlet,1
 Non-Parent Node Connection,BREAK_ROOM_1_Z10_SUPPLYINLET,COIL:COOLING:DX:SINGLESPEED,BREAK_ROOM_1_Z10_COOLINGCOILDX,Inlet,1
 Non-Parent Node Connection,BREAK_ROOM_1_Z10_COOLC-HEATCNODE,COIL:COOLING:DX:SINGLESPEED,BREAK_ROOM_1_Z10_COOLINGCOILDX,Outlet,1
 Non-Parent Node Connection,MECHANICAL_1_Z11_SUPPLYINLET,COIL:COOLING:DX:SINGLESPEED,MECHANICAL_1_Z11_COOLINGCOILDX,Inlet,1
 Non-Parent Node Connection,MECHANICAL_1_Z11_COOLC-HEATCNODE,COIL:COOLING:DX:SINGLESPEED,MECHANICAL_1_Z11_COOLINGCOILDX,Outlet,1
 Non-Parent Node Connection,OFFICE_OPEN_1_Z12_SUPPLYINLET,COIL:COOLING:DX:SINGLESPEED,OFFICE_OPEN_1_Z12_COOLINGCOILDX,Inlet,1
 Non-Parent Node Connection,OFFICE_OPEN_1_Z12_COOLC-HEATCNODE,COIL:COOLING:DX:SINGLESPEED,OFFICE_OPEN_1_Z12_COOLINGCOILDX,Outlet,1
 Non-Parent Node Connection,OFFICE_PRIVATE_1_Z13_SUPPLYINLET,COIL:COOLING:DX:SINGLESPEED,OFFICE_PRIVATE_1_Z13_COOLINGCOILDX,Inlet,1
 Non-Parent Node Connection,OFFICE_PRIVATE_1_Z13_COOLC-HEATCNODE,COIL:COOLING:DX:SINGLESPEED,OFFICE_PRIVATE_1_Z13_COOLINGCOILDX,Outlet,1
 Non-Parent Node Connection,STORAGE_1_Z14_SUPPLYINLET,COIL:COOLING:DX:SINGLESPEED,STORAGE_1_Z14_COOLINGCOILDX,Inlet,1
 Non-Parent Node Connection,STORAGE_1_Z14_COOLC-HEATCNODE,COIL:COOLING:DX:SINGLESPEED,STORAGE_1_Z14_COOLINGCOILDX,Outlet,1
 Non-Parent Node Connection,LOBBY_2_Z15_SUPPLYINLET,COIL:COOLING:DX:SINGLESPEED,LOBBY_2_Z15_COOLINGCOILDX,Inlet,1
 Non-Parent Node Connection,LOBBY_2_Z15_COOLC-HEATCNODE,COIL:COOLING:DX:SINGLESPEED,LOBBY_2_Z15_COOLINGCOILDX,Outlet,1
 Non-Parent Node Connection,CONFERENCE_2_Z16_SUPPLYINLET,COIL:COOLING:DX:SINGLESPEED,CONFERENCE_2_Z16_COOLINGCOILDX,Inlet,1
 Non-Parent Node Connection,CONFERENCE_2_Z16_COOLC-HEATCNODE,COIL:COOLING:DX:SINGLESPEED,CONFERENCE_2_Z16_COOLINGCOILDX,Outlet,1
 Non-Parent Node Connection,BREAK_ROOM_2_Z17_SUPPLYINLET,COIL:COOLING:DX:SINGLESPEED,BREAK_ROOM_2_Z17_COOLINGCOILDX,Inlet,1
 Non-Parent Node Connection,BREAK_ROOM_2_Z17_COOLC-HEATCNODE,COIL:COOLING:DX:SINGLESPEED,BREAK_ROOM_2_Z17_COOLINGCOILDX,Outlet,1
 Non-Parent Node Connection,MECHANICAL_2_Z18_SUPPLYINLET,COIL:COOLING:DX:SINGLESPEED,MECHANICAL_2_Z18_COOLINGCOILDX,Inlet,1
 Non-Parent Node Connection,MECHANICAL_2_Z18_COOLC-HEATCNODE,COIL:COOLING:DX:SINGLESPEED,MECHANICAL_2_Z18_COOLINGCOILDX,Outlet,1
 Non-Parent Node Connection,OFFICE_OPEN_2_Z19_SUPPLYINLET,COIL:COOLING:DX:SINGLESPEED,OFFICE_OPEN_2_Z19_COOLINGCOILDX,Inlet,1
 Non-Parent Node Connection,OFFICE_OPEN_2_Z19_COOLC-HEATCNODE,COIL:COOLING:DX:SINGLESPEED,OFFICE_OPEN_2_Z19_COOLINGCOILDX,Outlet,1
 Non-Parent Node Connection,OFFICE_PRIVATE_2_Z20_SUPPLYINLET,COIL:COOLING:DX:SINGLESPEED,OFFICE_PRIVATE_2_Z20_COOLINGCOILDX,Inlet,1
 Non-Parent Node Connection,OFFICE_PRIVATE_2_Z20_COOLC-HEATCNODE,COIL:COOLING:DX:SINGLESPEED,OFFICE_PRIVATE_2_Z20_COOLINGCOILDX,Outlet,1
 Non-Parent Node Connection,STORAGE_2_Z21_SUPPLYINLET,COIL:COOLING:DX:SINGLESPEED,STORAGE_2_Z21_COOLINGCOILDX,Inlet,1
 Non-Parent Node Connection,STORAGE_2_Z21_COOLC-HEATCNODE,COIL:COOLING:DX:SINGLESPEED,STORAGE_2_Z21_COOLINGCOILDX,Outlet,1
 Non-Parent Node Connection,CONFERENCE_3_Z22_SUPPLYINLET,COIL:COOLING:DX:SINGLESPEED,CONFERENCE_3_Z22_COOLINGCOILDX,Inlet,1
 Non-Parent Node Connection,CONFERENCE_3_Z22_COOLC-HEATCNODE,COIL:COOLING:DX:SINGLESPEED,CONFERENCE_3_Z22_COOLINGCOILDX,Outlet,1
 Non-Parent Node Connection,BREAK_ROOM_3_Z23_SUPPLYINLET,COIL:COOLING:DX:SINGLESPEED,BREAK_ROOM_3_Z23_COOLINGCOILDX,Inlet,1
 Non-Parent Node Connection,BREAK_ROOM_3_Z23_COOLC-HEATCNODE,COIL:COOLING:DX:SINGLESPEED,BREAK_ROOM_3_Z23_COOLINGCOILDX,Outlet,1
 Non-Parent Node Connection,MECHANICAL_3_Z24_SUPPLYINLET,COIL:COOLING:DX:SINGLESPEED,MECHANICAL_3_Z24_COOLINGCOILDX,Inlet,1
 Non-Parent Node Connection,MECHANICAL_3_Z24_COOLC-HEATCNODE,COIL:COOLING:DX:SINGLESPEED,MECHANICAL_3_Z24_COOLINGCOILDX,Outlet,1
 Non-Parent Node Connection,OFFICE_OPEN_3_Z25_SUPPLYINLET,COIL:COOLING:DX:SINGLESPEED,OFFICE_OPEN_3_Z25_COOLINGCOILDX,Inlet,1
 Non-Parent Node Connection,OFFICE_OPEN_3_Z25_COOLC-HEATCNODE,COIL:COOLING:DX:SINGLESPEED,OFFICE_OPEN_3_Z25_COOLINGCOILDX,Outlet,1
 Non-Parent Node Connection,STORAGE_3_Z26_SUPPLYINLET,COIL:COOLING:DX:SINGLESPEED,STORAGE_3_Z26_COOLINGCOILDX,Inlet,1
 Non-Parent Node Connection,STORAGE_3_Z26_COOLC-HEATCNODE,COIL:COOLING:DX:SINGLESPEED,STORAGE_3_Z26_COOLINGCOILDX,Outlet,1
 Non-Parent Node Connection,LOBBY_4_Z27_SUPPLYINLET,COIL:COOLING:DX:SINGLESPEED,LOBBY_4_Z27_COOLINGCOILDX,Inlet,1
 Non-Parent Node Connection,LOBBY_4_Z27_COOLC-HEATCNODE,COIL:COOLING:DX:SINGLESPEED,LOBBY_4_Z27_COOLINGCOILDX,Outlet,1
 Non-Parent Node Connection,CONFERENCE_4_Z28_SUPPLYINLET,COIL:COOLING:DX:SINGLESPEED,CONFERENCE_4_Z28_COOLINGCOILDX,Inlet,1
 Non-Parent Node Connection,CONFERENCE_4_Z28_COOLC-HEATCNODE,COIL:COOLING:DX:SINGLESPEED,CONFERENCE_4_Z28_COOLINGCOILDX,Outlet,1
 Non-Parent Node Connection,BREAK_ROOM_4_Z29_SUPPLYINLET,COIL:COOLING:DX:SINGLESPEED,BREAK_ROOM_4_Z29_COOLINGCOILDX,Inlet,1
 Non-Parent Node Connection,BREAK_ROOM_4_Z29_COOLC-HEATCNODE,COIL:COOLING:DX:SINGLESPEED,BREAK_ROOM_4_Z29_COOLINGCOILDX,Outlet,1
 Non-Parent Node Connection,MECHANICAL_4_Z30_SUPPLYINLET,COIL:COOLING:DX:SINGLESPEED,MECHANICAL_4_Z30_COOLINGCOILDX,Inlet,1
 Non-Parent Node Connection,MECHANICAL_4_Z30_COOLC-HEATCNODE,COIL:COOLING:DX:SINGLESPEED,MECHANICAL_4_Z30_COOLINGCOILDX,Outlet,1
 Non-Parent Node Connection,OFFICE_OPEN_4_Z31_SUPPLYINLET,COIL:COOLING:DX:SINGLESPEED,OFFICE_OPEN_4_Z31_COOLINGCOILDX,Inlet,1
 Non-Parent Node Connection,OFFICE_OPEN_4_Z31_COOLC-HEATCNODE,COIL:COOLING:DX:SINGLESPEED,OFFICE_OPEN_4_Z31_COOLINGCOILDX,Outlet,1
 Non-Parent Node Connection,OFFICE_PRIVATE_4_Z32_SUPPLYINLET,COIL:COOLING:DX:SINGLESPEED,OFFICE_PRIVATE_4_Z32_COOLINGCOILDX,Inlet,1
 Non-Parent Node Connection,OFFICE_PRIVATE_4_Z32_COOLC-HEATCNODE,COIL:COOLING:DX:SINGLESPEED,OFFICE_PRIVATE_4_Z32_COOLINGCOILDX,Outlet,1
 Non-Parent Node Connection,STORAGE_4_Z33_SUPPLYINLET,COIL:COOLING:DX:SINGLESPEED,STORAGE_4_Z33_COOLINGCOILDX,Inlet,1
 Non-Parent Node Connection,STORAGE_4_Z33_COOLC-HEATCNODE,COIL:COOLING:DX:SINGLESPEED,STORAGE_4_Z33_COOLINGCOILDX,Outlet,1
