Program Version,EnergyPlus, Version 24.2.0-94a887817b, YMD=2025.11.02 18:37,
Var Type (reported time step),Var Report Type,Variable Name [Units]
Zone,Meter,Electricity:Facility [J]
Zone,Meter,Electricity:Building [J]
Zone,Meter,Electricity:Zone:MECHANICAL_0 [J]
Zone,Meter,Electricity:SpaceType:GENERAL [J]
Zone,Meter,InteriorLights:Electricity [J]
Zone,Meter,InteriorLights:Electricity:Zone:MECHANICAL_0 [J]
Zone,Meter,InteriorLights:Electricity:SpaceType:GENERAL [J]
Zone,Meter,General:InteriorLights:Electricity [J]
Zone,Meter,General:InteriorLights:Electricity:Zone:MECHANICAL_0 [J]
Zone,Meter,General:InteriorLights:Electricity:SpaceType:GENERAL [J]
Zone,Meter,Electricity:Zone:OFFICE_PRIVATE_0 [J]
Zone,Meter,InteriorLights:Electricity:Zone:OFFICE_PRIVATE_0 [J]
Zone,Meter,General:InteriorLights:Electricity:Zone:OFFICE_PRIVATE_0 [J]
Zone,Meter,Electricity:Zone:LOBBY_1 [J]
Zone,Meter,InteriorLights:Electricity:Zone:LOBBY_1 [J]
Zone,Meter,General:InteriorLights:Electricity:Zone:LOBBY_1 [J]
Zone,Meter,Electricity:Zone:OFFICE_PRIVATE_1 [J]
Zone,Meter,InteriorLights:Electricity:Zone:OFFICE_PRIVATE_1 [J]
Zone,Meter,General:InteriorLights:Electricity:Zone:OFFICE_PRIVATE_1 [J]
Zone,Meter,Electricity:Zone:BREAK_ROOM_2 [J]
Zone,Meter,InteriorLights:Electricity:Zone:BREAK_ROOM_2 [J]
Zone,Meter,General:InteriorLights:Electricity:Zone:BREAK_ROOM_2 [J]
Zone,Meter,Electricity:Zone:OFFICE_PRIVATE_2 [J]
Zone,Meter,InteriorLights:Electricity:Zone:OFFICE_PRIVATE_2 [J]
Zone,Meter,General:InteriorLights:Electricity:Zone:OFFICE_PRIVATE_2 [J]
Zone,Meter,Electricity:Zone:STORAGE_2 [J]
Zone,Meter,InteriorLights:Electricity:Zone:STORAGE_2 [J]
Zone,Meter,General:InteriorLights:Electricity:Zone:STORAGE_2 [J]
Zone,Meter,Electricity:Zone:MECHANICAL_3 [J]
Zone,Meter,InteriorLights:Electricity:Zone:MECHANICAL_3 [J]
Zone,Meter,General:InteriorLights:Electricity:Zone:MECHANICAL_3 [J]
Zone,Meter,Electricity:Zone:OFFICE_PRIVATE_3 [J]
Zone,Meter,InteriorLights:Electricity:Zone:OFFICE_PRIVATE_3 [J]
Zone,Meter,General:InteriorLights:Electricity:Zone:OFFICE_PRIVATE_3 [J]
Zone,Meter,Electricity:Zone:OFFICE_PRIVATE_4 [J]
Zone,Meter,InteriorLights:Electricity:Zone:OFFICE_PRIVATE_4 [J]
Zone,Meter,General:InteriorLights:Electricity:Zone:OFFICE_PRIVATE_4 [J]
Zone,Meter,Electricity:Zone:STORAGE_4 [J]
Zone,Meter,InteriorLights:Electricity:Zone:STORAGE_4 [J]
Zone,Meter,General:InteriorLights:Electricity:Zone:STORAGE_4 [J]
Zone,Meter,Electricity:Zone:BREAK_ROOM_6 [J]
Zone,Meter,InteriorLights:Electricity:Zone:BREAK_ROOM_6 [J]
Zone,Meter,General:InteriorLights:Electricity:Zone:BREAK_ROOM_6 [J]
Zone,Meter,Electricity:Zone:BREAK_ROOM_8 [J]
Zone,Meter,InteriorLights:Electricity:Zone:BREAK_ROOM_8 [J]
Zone,Meter,General:InteriorLights:Electricity:Zone:BREAK_ROOM_8 [J]
Zone,Meter,Electricity:Zone:STORAGE_8 [J]
Zone,Meter,InteriorLights:Electricity:Zone:STORAGE_8 [J]
Zone,Meter,General:InteriorLights:Electricity:Zone:STORAGE_8 [J]
Zone,Meter,Electricity:Zone:BREAK_ROOM_11 [J]
Zone,Meter,InteriorLights:Electricity:Zone:BREAK_ROOM_11 [J]
Zone,Meter,General:InteriorLights:Electricity:Zone:BREAK_ROOM_11 [J]
Zone,Meter,Electricity:Zone:CONFERENCE_13 [J]
Zone,Meter,InteriorLights:Electricity:Zone:CONFERENCE_13 [J]
Zone,Meter,General:InteriorLights:Electricity:Zone:CONFERENCE_13 [J]
Zone,Meter,Electricity:Zone:STORAGE_13 [J]
Zone,Meter,InteriorLights:Electricity:Zone:STORAGE_13 [J]
Zone,Meter,General:InteriorLights:Electricity:Zone:STORAGE_13 [J]
Zone,Meter,Electricity:Zone:LOBBY_14 [J]
Zone,Meter,InteriorLights:Electricity:Zone:LOBBY_14 [J]
Zone,Meter,General:InteriorLights:Electricity:Zone:LOBBY_14 [J]
Zone,Meter,Electricity:Zone:CONFERENCE_14 [J]
Zone,Meter,InteriorLights:Electricity:Zone:CONFERENCE_14 [J]
Zone,Meter,General:InteriorLights:Electricity:Zone:CONFERENCE_14 [J]
Zone,Meter,Electricity:Zone:BREAK_ROOM_14 [J]
Zone,Meter,InteriorLights:Electricity:Zone:BREAK_ROOM_14 [J]
Zone,Meter,General:InteriorLights:Electricity:Zone:BREAK_ROOM_14 [J]
Zone,Meter,Electricity:Zone:MECHANICAL_14 [J]
Zone,Meter,InteriorLights:Electricity:Zone:MECHANICAL_14 [J]
Zone,Meter,General:InteriorLights:Electricity:Zone:MECHANICAL_14 [J]
Zone,Meter,Electricity:Zone:CONFERENCE_15 [J]
Zone,Meter,InteriorLights:Electricity:Zone:CONFERENCE_15 [J]
Zone,Meter,General:InteriorLights:Electricity:Zone:CONFERENCE_15 [J]
Zone,Meter,Electricity:Zone:STORAGE_15 [J]
Zone,Meter,InteriorLights:Electricity:Zone:STORAGE_15 [J]
Zone,Meter,General:InteriorLights:Electricity:Zone:STORAGE_15 [J]
Zone,Meter,Electricity:Zone:BREAK_ROOM_16 [J]
Zone,Meter,InteriorLights:Electricity:Zone:BREAK_ROOM_16 [J]
Zone,Meter,General:InteriorLights:Electricity:Zone:BREAK_ROOM_16 [J]
Zone,Meter,Electricity:Zone:OFFICE_OPEN_16 [J]
Zone,Meter,InteriorLights:Electricity:Zone:OFFICE_OPEN_16 [J]
Zone,Meter,General:InteriorLights:Electricity:Zone:OFFICE_OPEN_16 [J]
Zone,Meter,Electricity:Zone:BREAK_ROOM_18 [J]
Zone,Meter,InteriorLights:Electricity:Zone:BREAK_ROOM_18 [J]
Zone,Meter,General:InteriorLights:Electricity:Zone:BREAK_ROOM_18 [J]
Zone,Meter,Electricity:Zone:OFFICE_PRIVATE_18 [J]
Zone,Meter,InteriorLights:Electricity:Zone:OFFICE_PRIVATE_18 [J]
Zone,Meter,General:InteriorLights:Electricity:Zone:OFFICE_PRIVATE_18 [J]
Zone,Meter,Electricity:Zone:CONFERENCE_19 [J]
Zone,Meter,InteriorLights:Electricity:Zone:CONFERENCE_19 [J]
Zone,Meter,General:InteriorLights:Electricity:Zone:CONFERENCE_19 [J]
Zone,Meter,Electricity:Zone:MECHANICAL_19 [J]
Zone,Meter,InteriorLights:Electricity:Zone:MECHANICAL_19 [J]
Zone,Meter,General:InteriorLights:Electricity:Zone:MECHANICAL_19 [J]
Zone,Meter,Electricity:Zone:OFFICE_PRIVATE_19 [J]
Zone,Meter,InteriorLights:Electricity:Zone:OFFICE_PRIVATE_19 [J]
Zone,Meter,General:InteriorLights:Electricity:Zone:OFFICE_PRIVATE_19 [J]
Zone,Meter,Electricity:Zone:STORAGE_22 [J]
Zone,Meter,InteriorLights:Electricity:Zone:STORAGE_22 [J]
Zone,Meter,General:InteriorLights:Electricity:Zone:STORAGE_22 [J]
Zone,Meter,Electricity:Zone:STORAGE_24 [J]
Zone,Meter,InteriorLights:Electricity:Zone:STORAGE_24 [J]
Zone,Meter,General:InteriorLights:Electricity:Zone:STORAGE_24 [J]
Zone,Meter,Electricity:Zone:BREAK_ROOM_25 [J]
Zone,Meter,InteriorLights:Electricity:Zone:BREAK_ROOM_25 [J]
Zone,Meter,General:InteriorLights:Electricity:Zone:BREAK_ROOM_25 [J]
Zone,Meter,Electricity:Zone:OFFICE_PRIVATE_25 [J]
Zone,Meter,InteriorLights:Electricity:Zone:OFFICE_PRIVATE_25 [J]
Zone,Meter,General:InteriorLights:Electricity:Zone:OFFICE_PRIVATE_25 [J]
Zone,Meter,Electricity:Zone:STORAGE_25 [J]
Zone,Meter,InteriorLights:Electricity:Zone:STORAGE_25 [J]
Zone,Meter,General:InteriorLights:Electricity:Zone:STORAGE_25 [J]
Zone,Meter,Electricity:Zone:STORAGE_26 [J]
Zone,Meter,InteriorLights:Electricity:Zone:STORAGE_26 [J]
Zone,Meter,General:InteriorLights:Electricity:Zone:STORAGE_26 [J]
Zone,Meter,Electricity:Zone:CONFERENCE_27 [J]
Zone,Meter,InteriorLights:Electricity:Zone:CONFERENCE_27 [J]
Zone,Meter,General:InteriorLights:Electricity:Zone:CONFERENCE_27 [J]
Zone,Meter,Electricity:Zone:BREAK_ROOM_27 [J]
Zone,Meter,InteriorLights:Electricity:Zone:BREAK_ROOM_27 [J]
Zone,Meter,General:InteriorLights:Electricity:Zone:BREAK_ROOM_27 [J]
Zone,Meter,Electricity:Zone:OFFICE_PRIVATE_28 [J]
Zone,Meter,InteriorLights:Electricity:Zone:OFFICE_PRIVATE_28 [J]
Zone,Meter,General:InteriorLights:Electricity:Zone:OFFICE_PRIVATE_28 [J]
Zone,Meter,Electricity:Zone:BREAK_ROOM_29 [J]
Zone,Meter,InteriorLights:Electricity:Zone:BREAK_ROOM_29 [J]
Zone,Meter,General:InteriorLights:Electricity:Zone:BREAK_ROOM_29 [J]
Zone,Meter,Electricity:Zone:STORAGE_29 [J]
Zone,Meter,InteriorLights:Electricity:Zone:STORAGE_29 [J]
Zone,Meter,General:InteriorLights:Electricity:Zone:STORAGE_29 [J]
Zone,Meter,Electricity:Zone:CONFERENCE_30 [J]
Zone,Meter,InteriorLights:Electricity:Zone:CONFERENCE_30 [J]
Zone,Meter,General:InteriorLights:Electricity:Zone:CONFERENCE_30 [J]
Zone,Meter,Electricity:Zone:STORAGE_31 [J]
Zone,Meter,InteriorLights:Electricity:Zone:STORAGE_31 [J]
Zone,Meter,General:InteriorLights:Electricity:Zone:STORAGE_31 [J]
Zone,Meter,Electricity:Zone:BREAK_ROOM_32 [J]
Zone,Meter,InteriorLights:Electricity:Zone:BREAK_ROOM_32 [J]
Zone,Meter,General:InteriorLights:Electricity:Zone:BREAK_ROOM_32 [J]
Zone,Meter,Electricity:Zone:MECHANICAL_32 [J]
Zone,Meter,InteriorLights:Electricity:Zone:MECHANICAL_32 [J]
Zone,Meter,General:InteriorLights:Electricity:Zone:MECHANICAL_32 [J]
Zone,Meter,Electricity:Zone:STORAGE_32 [J]
Zone,Meter,InteriorLights:Electricity:Zone:STORAGE_32 [J]
Zone,Meter,General:InteriorLights:Electricity:Zone:STORAGE_32 [J]
Zone,Meter,Electricity:Zone:OFFICE_PRIVATE_33 [J]
Zone,Meter,InteriorLights:Electricity:Zone:OFFICE_PRIVATE_33 [J]
Zone,Meter,General:InteriorLights:Electricity:Zone:OFFICE_PRIVATE_33 [J]
Zone,Meter,Electricity:Zone:OFFICE_PRIVATE_34 [J]
Zone,Meter,InteriorLights:Electricity:Zone:OFFICE_PRIVATE_34 [J]
Zone,Meter,General:InteriorLights:Electricity:Zone:OFFICE_PRIVATE_34 [J]
Zone,Meter,Electricity:Zone:STORAGE_34 [J]
Zone,Meter,InteriorLights:Electricity:Zone:STORAGE_34 [J]
Zone,Meter,General:InteriorLights:Electricity:Zone:STORAGE_34 [J]
Zone,Meter,Electricity:Zone:MECHANICAL_35 [J]
Zone,Meter,InteriorLights:Electricity:Zone:MECHANICAL_35 [J]
Zone,Meter,General:InteriorLights:Electricity:Zone:MECHANICAL_35 [J]
Zone,Meter,Electricity:Zone:CONFERENCE_36 [J]
Zone,Meter,InteriorLights:Electricity:Zone:CONFERENCE_36 [J]
Zone,Meter,General:InteriorLights:Electricity:Zone:CONFERENCE_36 [J]
Zone,Meter,Electricity:Zone:OFFICE_PRIVATE_36 [J]
Zone,Meter,InteriorLights:Electricity:Zone:OFFICE_PRIVATE_36 [J]
Zone,Meter,General:InteriorLights:Electricity:Zone:OFFICE_PRIVATE_36 [J]
Zone,Meter,Electricity:Zone:OFFICE_PRIVATE_37 [J]
Zone,Meter,InteriorLights:Electricity:Zone:OFFICE_PRIVATE_37 [J]
Zone,Meter,General:InteriorLights:Electricity:Zone:OFFICE_PRIVATE_37 [J]
Zone,Meter,Electricity:Zone:STORAGE_38 [J]
Zone,Meter,InteriorLights:Electricity:Zone:STORAGE_38 [J]
Zone,Meter,General:InteriorLights:Electricity:Zone:STORAGE_38 [J]
Zone,Meter,Electricity:Zone:CONFERENCE_39 [J]
Zone,Meter,InteriorLights:Electricity:Zone:CONFERENCE_39 [J]
Zone,Meter,General:InteriorLights:Electricity:Zone:CONFERENCE_39 [J]
Zone,Meter,Electricity:Zone:BREAK_ROOM_40 [J]
Zone,Meter,InteriorLights:Electricity:Zone:BREAK_ROOM_40 [J]
Zone,Meter,General:InteriorLights:Electricity:Zone:BREAK_ROOM_40 [J]
Zone,Meter,Electricity:Zone:MECHANICAL_40 [J]
Zone,Meter,InteriorLights:Electricity:Zone:MECHANICAL_40 [J]
Zone,Meter,General:InteriorLights:Electricity:Zone:MECHANICAL_40 [J]
Zone,Meter,Electricity:Zone:MECHANICAL_41 [J]
Zone,Meter,InteriorLights:Electricity:Zone:MECHANICAL_41 [J]
Zone,Meter,General:InteriorLights:Electricity:Zone:MECHANICAL_41 [J]
Zone,Meter,Electricity:Zone:OFFICE_PRIVATE_41 [J]
Zone,Meter,InteriorLights:Electricity:Zone:OFFICE_PRIVATE_41 [J]
Zone,Meter,General:InteriorLights:Electricity:Zone:OFFICE_PRIVATE_41 [J]
Zone,Meter,Electricity:Zone:BREAK_ROOM_42 [J]
Zone,Meter,InteriorLights:Electricity:Zone:BREAK_ROOM_42 [J]
Zone,Meter,General:InteriorLights:Electricity:Zone:BREAK_ROOM_42 [J]
Zone,Meter,Electricity:Zone:STORAGE_42 [J]
Zone,Meter,InteriorLights:Electricity:Zone:STORAGE_42 [J]
Zone,Meter,General:InteriorLights:Electricity:Zone:STORAGE_42 [J]
Zone,Meter,Electricity:Zone:LOBBY_43 [J]
Zone,Meter,InteriorLights:Electricity:Zone:LOBBY_43 [J]
Zone,Meter,General:InteriorLights:Electricity:Zone:LOBBY_43 [J]
Zone,Meter,Electricity:Zone:STORAGE_43 [J]
Zone,Meter,InteriorLights:Electricity:Zone:STORAGE_43 [J]
Zone,Meter,General:InteriorLights:Electricity:Zone:STORAGE_43 [J]
Zone,Meter,Electricity:Zone:BREAK_ROOM_44 [J]
Zone,Meter,InteriorLights:Electricity:Zone:BREAK_ROOM_44 [J]
Zone,Meter,General:InteriorLights:Electricity:Zone:BREAK_ROOM_44 [J]
Zone,Meter,Electricity:Zone:OFFICE_PRIVATE_44 [J]
Zone,Meter,InteriorLights:Electricity:Zone:OFFICE_PRIVATE_44 [J]
Zone,Meter,General:InteriorLights:Electricity:Zone:OFFICE_PRIVATE_44 [J]
Zone,Meter,Electricity:Zone:CONFERENCE_45 [J]
Zone,Meter,InteriorLights:Electricity:Zone:CONFERENCE_45 [J]
Zone,Meter,General:InteriorLights:Electricity:Zone:CONFERENCE_45 [J]
Zone,Meter,Electricity:Zone:OFFICE_PRIVATE_45 [J]
Zone,Meter,InteriorLights:Electricity:Zone:OFFICE_PRIVATE_45 [J]
Zone,Meter,General:InteriorLights:Electricity:Zone:OFFICE_PRIVATE_45 [J]
Zone,Meter,Electricity:Zone:BREAK_ROOM_46 [J]
Zone,Meter,InteriorLights:Electricity:Zone:BREAK_ROOM_46 [J]
Zone,Meter,General:InteriorLights:Electricity:Zone:BREAK_ROOM_46 [J]
Zone,Meter,Electricity:Zone:OFFICE_PRIVATE_47 [J]
Zone,Meter,InteriorLights:Electricity:Zone:OFFICE_PRIVATE_47 [J]
Zone,Meter,General:InteriorLights:Electricity:Zone:OFFICE_PRIVATE_47 [J]
Zone,Meter,Electricity:Zone:BREAK_ROOM_48 [J]
Zone,Meter,InteriorLights:Electricity:Zone:BREAK_ROOM_48 [J]
Zone,Meter,General:InteriorLights:Electricity:Zone:BREAK_ROOM_48 [J]
Zone,Meter,Electricity:Zone:STORAGE_48 [J]
Zone,Meter,InteriorLights:Electricity:Zone:STORAGE_48 [J]
Zone,Meter,General:InteriorLights:Electricity:Zone:STORAGE_48 [J]
Zone,Meter,Electricity:Zone:LOBBY_51 [J]
Zone,Meter,InteriorLights:Electricity:Zone:LOBBY_51 [J]
Zone,Meter,General:InteriorLights:Electricity:Zone:LOBBY_51 [J]
Zone,Meter,Electricity:Zone:CONFERENCE_51 [J]
Zone,Meter,InteriorLights:Electricity:Zone:CONFERENCE_51 [J]
Zone,Meter,General:InteriorLights:Electricity:Zone:CONFERENCE_51 [J]
Zone,Meter,Electricity:Zone:MECHANICAL_51 [J]
Zone,Meter,InteriorLights:Electricity:Zone:MECHANICAL_51 [J]
Zone,Meter,General:InteriorLights:Electricity:Zone:MECHANICAL_51 [J]
Zone,Meter,Electricity:Zone:OFFICE_PRIVATE_51 [J]
Zone,Meter,InteriorLights:Electricity:Zone:OFFICE_PRIVATE_51 [J]
Zone,Meter,General:InteriorLights:Electricity:Zone:OFFICE_PRIVATE_51 [J]
Zone,Meter,Electricity:Zone:MECHANICAL_52 [J]
Zone,Meter,InteriorLights:Electricity:Zone:MECHANICAL_52 [J]
Zone,Meter,General:InteriorLights:Electricity:Zone:MECHANICAL_52 [J]
Zone,Meter,Electricity:Zone:OFFICE_PRIVATE_52 [J]
Zone,Meter,InteriorLights:Electricity:Zone:OFFICE_PRIVATE_52 [J]
Zone,Meter,General:InteriorLights:Electricity:Zone:OFFICE_PRIVATE_52 [J]
Zone,Meter,Electricity:Zone:LOBBY_54 [J]
Zone,Meter,InteriorLights:Electricity:Zone:LOBBY_54 [J]
Zone,Meter,General:InteriorLights:Electricity:Zone:LOBBY_54 [J]
Zone,Meter,Electricity:Zone:BREAK_ROOM_54 [J]
Zone,Meter,InteriorLights:Electricity:Zone:BREAK_ROOM_54 [J]
Zone,Meter,General:InteriorLights:Electricity:Zone:BREAK_ROOM_54 [J]
Zone,Meter,Electricity:Zone:OFFICE_OPEN_54 [J]
Zone,Meter,InteriorLights:Electricity:Zone:OFFICE_OPEN_54 [J]
Zone,Meter,General:InteriorLights:Electricity:Zone:OFFICE_OPEN_54 [J]
Zone,Meter,InteriorEquipment:Electricity [J]
Zone,Meter,InteriorEquipment:Electricity:Zone:MECHANICAL_0 [J]
Zone,Meter,InteriorEquipment:Electricity:SpaceType:GENERAL [J]
Zone,Meter,General:InteriorEquipment:Electricity [J]
Zone,Meter,General:InteriorEquipment:Electricity:Zone:MECHANICAL_0 [J]
Zone,Meter,General:InteriorEquipment:Electricity:SpaceType:GENERAL [J]
Zone,Meter,InteriorEquipment:Electricity:Zone:OFFICE_PRIVATE_0 [J]
Zone,Meter,General:InteriorEquipment:Electricity:Zone:OFFICE_PRIVATE_0 [J]
Zone,Meter,InteriorEquipment:Electricity:Zone:LOBBY_1 [J]
Zone,Meter,General:InteriorEquipment:Electricity:Zone:LOBBY_1 [J]
Zone,Meter,InteriorEquipment:Electricity:Zone:OFFICE_PRIVATE_1 [J]
Zone,Meter,General:InteriorEquipment:Electricity:Zone:OFFICE_PRIVATE_1 [J]
Zone,Meter,InteriorEquipment:Electricity:Zone:BREAK_ROOM_2 [J]
Zone,Meter,General:InteriorEquipment:Electricity:Zone:BREAK_ROOM_2 [J]
Zone,Meter,InteriorEquipment:Electricity:Zone:OFFICE_PRIVATE_2 [J]
Zone,Meter,General:InteriorEquipment:Electricity:Zone:OFFICE_PRIVATE_2 [J]
Zone,Meter,InteriorEquipment:Electricity:Zone:STORAGE_2 [J]
Zone,Meter,General:InteriorEquipment:Electricity:Zone:STORAGE_2 [J]
Zone,Meter,InteriorEquipment:Electricity:Zone:MECHANICAL_3 [J]
Zone,Meter,General:InteriorEquipment:Electricity:Zone:MECHANICAL_3 [J]
Zone,Meter,InteriorEquipment:Electricity:Zone:OFFICE_PRIVATE_3 [J]
Zone,Meter,General:InteriorEquipment:Electricity:Zone:OFFICE_PRIVATE_3 [J]
Zone,Meter,InteriorEquipment:Electricity:Zone:OFFICE_PRIVATE_4 [J]
Zone,Meter,General:InteriorEquipment:Electricity:Zone:OFFICE_PRIVATE_4 [J]
Zone,Meter,InteriorEquipment:Electricity:Zone:STORAGE_4 [J]
Zone,Meter,General:InteriorEquipment:Electricity:Zone:STORAGE_4 [J]
Zone,Meter,InteriorEquipment:Electricity:Zone:BREAK_ROOM_6 [J]
Zone,Meter,General:InteriorEquipment:Electricity:Zone:BREAK_ROOM_6 [J]
Zone,Meter,InteriorEquipment:Electricity:Zone:BREAK_ROOM_8 [J]
Zone,Meter,General:InteriorEquipment:Electricity:Zone:BREAK_ROOM_8 [J]
Zone,Meter,InteriorEquipment:Electricity:Zone:STORAGE_8 [J]
Zone,Meter,General:InteriorEquipment:Electricity:Zone:STORAGE_8 [J]
Zone,Meter,InteriorEquipment:Electricity:Zone:BREAK_ROOM_11 [J]
Zone,Meter,General:InteriorEquipment:Electricity:Zone:BREAK_ROOM_11 [J]
Zone,Meter,InteriorEquipment:Electricity:Zone:CONFERENCE_13 [J]
Zone,Meter,General:InteriorEquipment:Electricity:Zone:CONFERENCE_13 [J]
Zone,Meter,InteriorEquipment:Electricity:Zone:STORAGE_13 [J]
Zone,Meter,General:InteriorEquipment:Electricity:Zone:STORAGE_13 [J]
Zone,Meter,InteriorEquipment:Electricity:Zone:LOBBY_14 [J]
Zone,Meter,General:InteriorEquipment:Electricity:Zone:LOBBY_14 [J]
Zone,Meter,InteriorEquipment:Electricity:Zone:CONFERENCE_14 [J]
Zone,Meter,General:InteriorEquipment:Electricity:Zone:CONFERENCE_14 [J]
Zone,Meter,InteriorEquipment:Electricity:Zone:BREAK_ROOM_14 [J]
Zone,Meter,General:InteriorEquipment:Electricity:Zone:BREAK_ROOM_14 [J]
Zone,Meter,InteriorEquipment:Electricity:Zone:MECHANICAL_14 [J]
Zone,Meter,General:InteriorEquipment:Electricity:Zone:MECHANICAL_14 [J]
Zone,Meter,InteriorEquipment:Electricity:Zone:CONFERENCE_15 [J]
Zone,Meter,General:InteriorEquipment:Electricity:Zone:CONFERENCE_15 [J]
Zone,Meter,InteriorEquipment:Electricity:Zone:STORAGE_15 [J]
Zone,Meter,General:InteriorEquipment:Electricity:Zone:STORAGE_15 [J]
Zone,Meter,InteriorEquipment:Electricity:Zone:BREAK_ROOM_16 [J]
Zone,Meter,General:InteriorEquipment:Electricity:Zone:BREAK_ROOM_16 [J]
Zone,Meter,InteriorEquipment:Electricity:Zone:OFFICE_OPEN_16 [J]
Zone,Meter,General:InteriorEquipment:Electricity:Zone:OFFICE_OPEN_16 [J]
Zone,Meter,InteriorEquipment:Electricity:Zone:BREAK_ROOM_18 [J]
Zone,Meter,General:InteriorEquipment:Electricity:Zone:BREAK_ROOM_18 [J]
Zone,Meter,InteriorEquipment:Electricity:Zone:OFFICE_PRIVATE_18 [J]
Zone,Meter,General:InteriorEquipment:Electricity:Zone:OFFICE_PRIVATE_18 [J]
Zone,Meter,InteriorEquipment:Electricity:Zone:CONFERENCE_19 [J]
Zone,Meter,General:InteriorEquipment:Electricity:Zone:CONFERENCE_19 [J]
Zone,Meter,InteriorEquipment:Electricity:Zone:MECHANICAL_19 [J]
Zone,Meter,General:InteriorEquipment:Electricity:Zone:MECHANICAL_19 [J]
Zone,Meter,InteriorEquipment:Electricity:Zone:OFFICE_PRIVATE_19 [J]
Zone,Meter,General:InteriorEquipment:Electricity:Zone:OFFICE_PRIVATE_19 [J]
Zone,Meter,InteriorEquipment:Electricity:Zone:STORAGE_22 [J]
Zone,Meter,General:InteriorEquipment:Electricity:Zone:STORAGE_22 [J]
Zone,Meter,InteriorEquipment:Electricity:Zone:STORAGE_24 [J]
Zone,Meter,General:InteriorEquipment:Electricity:Zone:STORAGE_24 [J]
Zone,Meter,InteriorEquipment:Electricity:Zone:BREAK_ROOM_25 [J]
Zone,Meter,General:InteriorEquipment:Electricity:Zone:BREAK_ROOM_25 [J]
Zone,Meter,InteriorEquipment:Electricity:Zone:OFFICE_PRIVATE_25 [J]
Zone,Meter,General:InteriorEquipment:Electricity:Zone:OFFICE_PRIVATE_25 [J]
Zone,Meter,InteriorEquipment:Electricity:Zone:STORAGE_25 [J]
Zone,Meter,General:InteriorEquipment:Electricity:Zone:STORAGE_25 [J]
Zone,Meter,InteriorEquipment:Electricity:Zone:STORAGE_26 [J]
Zone,Meter,General:InteriorEquipment:Electricity:Zone:STORAGE_26 [J]
Zone,Meter,InteriorEquipment:Electricity:Zone:CONFERENCE_27 [J]
Zone,Meter,General:InteriorEquipment:Electricity:Zone:CONFERENCE_27 [J]
Zone,Meter,InteriorEquipment:Electricity:Zone:BREAK_ROOM_27 [J]
Zone,Meter,General:InteriorEquipment:Electricity:Zone:BREAK_ROOM_27 [J]
Zone,Meter,InteriorEquipment:Electricity:Zone:OFFICE_PRIVATE_28 [J]
Zone,Meter,General:InteriorEquipment:Electricity:Zone:OFFICE_PRIVATE_28 [J]
Zone,Meter,InteriorEquipment:Electricity:Zone:BREAK_ROOM_29 [J]
Zone,Meter,General:InteriorEquipment:Electricity:Zone:BREAK_ROOM_29 [J]
Zone,Meter,InteriorEquipment:Electricity:Zone:STORAGE_29 [J]
Zone,Meter,General:InteriorEquipment:Electricity:Zone:STORAGE_29 [J]
Zone,Meter,InteriorEquipment:Electricity:Zone:CONFERENCE_30 [J]
Zone,Meter,General:InteriorEquipment:Electricity:Zone:CONFERENCE_30 [J]
Zone,Meter,InteriorEquipment:Electricity:Zone:STORAGE_31 [J]
Zone,Meter,General:InteriorEquipment:Electricity:Zone:STORAGE_31 [J]
Zone,Meter,InteriorEquipment:Electricity:Zone:BREAK_ROOM_32 [J]
Zone,Meter,General:InteriorEquipment:Electricity:Zone:BREAK_ROOM_32 [J]
Zone,Meter,InteriorEquipment:Electricity:Zone:MECHANICAL_32 [J]
Zone,Meter,General:InteriorEquipment:Electricity:Zone:MECHANICAL_32 [J]
Zone,Meter,InteriorEquipment:Electricity:Zone:STORAGE_32 [J]
Zone,Meter,General:InteriorEquipment:Electricity:Zone:STORAGE_32 [J]
Zone,Meter,InteriorEquipment:Electricity:Zone:OFFICE_PRIVATE_33 [J]
Zone,Meter,General:InteriorEquipment:Electricity:Zone:OFFICE_PRIVATE_33 [J]
Zone,Meter,InteriorEquipment:Electricity:Zone:OFFICE_PRIVATE_34 [J]
Zone,Meter,General:InteriorEquipment:Electricity:Zone:OFFICE_PRIVATE_34 [J]
Zone,Meter,InteriorEquipment:Electricity:Zone:STORAGE_34 [J]
Zone,Meter,General:InteriorEquipment:Electricity:Zone:STORAGE_34 [J]
Zone,Meter,InteriorEquipment:Electricity:Zone:MECHANICAL_35 [J]
Zone,Meter,General:InteriorEquipment:Electricity:Zone:MECHANICAL_35 [J]
Zone,Meter,InteriorEquipment:Electricity:Zone:CONFERENCE_36 [J]
Zone,Meter,General:InteriorEquipment:Electricity:Zone:CONFERENCE_36 [J]
Zone,Meter,InteriorEquipment:Electricity:Zone:OFFICE_PRIVATE_36 [J]
Zone,Meter,General:InteriorEquipment:Electricity:Zone:OFFICE_PRIVATE_36 [J]
Zone,Meter,InteriorEquipment:Electricity:Zone:OFFICE_PRIVATE_37 [J]
Zone,Meter,General:InteriorEquipment:Electricity:Zone:OFFICE_PRIVATE_37 [J]
Zone,Meter,InteriorEquipment:Electricity:Zone:STORAGE_38 [J]
Zone,Meter,General:InteriorEquipment:Electricity:Zone:STORAGE_38 [J]
Zone,Meter,InteriorEquipment:Electricity:Zone:CONFERENCE_39 [J]
Zone,Meter,General:InteriorEquipment:Electricity:Zone:CONFERENCE_39 [J]
Zone,Meter,InteriorEquipment:Electricity:Zone:BREAK_ROOM_40 [J]
Zone,Meter,General:InteriorEquipment:Electricity:Zone:BREAK_ROOM_40 [J]
Zone,Meter,InteriorEquipment:Electricity:Zone:MECHANICAL_40 [J]
Zone,Meter,General:InteriorEquipment:Electricity:Zone:MECHANICAL_40 [J]
Zone,Meter,InteriorEquipment:Electricity:Zone:MECHANICAL_41 [J]
Zone,Meter,General:InteriorEquipment:Electricity:Zone:MECHANICAL_41 [J]
Zone,Meter,InteriorEquipment:Electricity:Zone:OFFICE_PRIVATE_41 [J]
Zone,Meter,General:InteriorEquipment:Electricity:Zone:OFFICE_PRIVATE_41 [J]
Zone,Meter,InteriorEquipment:Electricity:Zone:BREAK_ROOM_42 [J]
Zone,Meter,General:InteriorEquipment:Electricity:Zone:BREAK_ROOM_42 [J]
Zone,Meter,InteriorEquipment:Electricity:Zone:STORAGE_42 [J]
Zone,Meter,General:InteriorEquipment:Electricity:Zone:STORAGE_42 [J]
Zone,Meter,InteriorEquipment:Electricity:Zone:LOBBY_43 [J]
Zone,Meter,General:InteriorEquipment:Electricity:Zone:LOBBY_43 [J]
Zone,Meter,InteriorEquipment:Electricity:Zone:STORAGE_43 [J]
Zone,Meter,General:InteriorEquipment:Electricity:Zone:STORAGE_43 [J]
Zone,Meter,InteriorEquipment:Electricity:Zone:BREAK_ROOM_44 [J]
Zone,Meter,General:InteriorEquipment:Electricity:Zone:BREAK_ROOM_44 [J]
Zone,Meter,InteriorEquipment:Electricity:Zone:OFFICE_PRIVATE_44 [J]
Zone,Meter,General:InteriorEquipment:Electricity:Zone:OFFICE_PRIVATE_44 [J]
Zone,Meter,InteriorEquipment:Electricity:Zone:CONFERENCE_45 [J]
Zone,Meter,General:InteriorEquipment:Electricity:Zone:CONFERENCE_45 [J]
Zone,Meter,InteriorEquipment:Electricity:Zone:OFFICE_PRIVATE_45 [J]
Zone,Meter,General:InteriorEquipment:Electricity:Zone:OFFICE_PRIVATE_45 [J]
Zone,Meter,InteriorEquipment:Electricity:Zone:BREAK_ROOM_46 [J]
Zone,Meter,General:InteriorEquipment:Electricity:Zone:BREAK_ROOM_46 [J]
Zone,Meter,InteriorEquipment:Electricity:Zone:OFFICE_PRIVATE_47 [J]
Zone,Meter,General:InteriorEquipment:Electricity:Zone:OFFICE_PRIVATE_47 [J]
Zone,Meter,InteriorEquipment:Electricity:Zone:BREAK_ROOM_48 [J]
Zone,Meter,General:InteriorEquipment:Electricity:Zone:BREAK_ROOM_48 [J]
Zone,Meter,InteriorEquipment:Electricity:Zone:STORAGE_48 [J]
Zone,Meter,General:InteriorEquipment:Electricity:Zone:STORAGE_48 [J]
Zone,Meter,InteriorEquipment:Electricity:Zone:LOBBY_51 [J]
Zone,Meter,General:InteriorEquipment:Electricity:Zone:LOBBY_51 [J]
Zone,Meter,InteriorEquipment:Electricity:Zone:CONFERENCE_51 [J]
Zone,Meter,General:InteriorEquipment:Electricity:Zone:CONFERENCE_51 [J]
Zone,Meter,InteriorEquipment:Electricity:Zone:MECHANICAL_51 [J]
Zone,Meter,General:InteriorEquipment:Electricity:Zone:MECHANICAL_51 [J]
Zone,Meter,InteriorEquipment:Electricity:Zone:OFFICE_PRIVATE_51 [J]
Zone,Meter,General:InteriorEquipment:Electricity:Zone:OFFICE_PRIVATE_51 [J]
Zone,Meter,InteriorEquipment:Electricity:Zone:MECHANICAL_52 [J]
Zone,Meter,General:InteriorEquipment:Electricity:Zone:MECHANICAL_52 [J]
Zone,Meter,InteriorEquipment:Electricity:Zone:OFFICE_PRIVATE_52 [J]
Zone,Meter,General:InteriorEquipment:Electricity:Zone:OFFICE_PRIVATE_52 [J]
Zone,Meter,InteriorEquipment:Electricity:Zone:LOBBY_54 [J]
Zone,Meter,General:InteriorEquipment:Electricity:Zone:LOBBY_54 [J]
Zone,Meter,InteriorEquipment:Electricity:Zone:BREAK_ROOM_54 [J]
Zone,Meter,General:InteriorEquipment:Electricity:Zone:BREAK_ROOM_54 [J]
Zone,Meter,InteriorEquipment:Electricity:Zone:OFFICE_OPEN_54 [J]
Zone,Meter,General:InteriorEquipment:Electricity:Zone:OFFICE_OPEN_54 [J]
Zone,Meter,EnergyTransfer:Facility [J]
Zone,Meter,EnergyTransfer:Building [J]
Zone,Meter,EnergyTransfer:Zone:MECHANICAL_0 [J]
Zone,Meter,Heating:EnergyTransfer [J]
Zone,Meter,Heating:EnergyTransfer:Zone:MECHANICAL_0 [J]
Zone,Meter,General:Heating:EnergyTransfer [J]
Zone,Meter,General:Heating:EnergyTransfer:Zone:MECHANICAL_0 [J]
Zone,Meter,Cooling:EnergyTransfer [J]
Zone,Meter,Cooling:EnergyTransfer:Zone:MECHANICAL_0 [J]
Zone,Meter,General:Cooling:EnergyTransfer [J]
Zone,Meter,General:Cooling:EnergyTransfer:Zone:MECHANICAL_0 [J]
Zone,Meter,EnergyTransfer:Zone:OFFICE_PRIVATE_0 [J]
Zone,Meter,Heating:EnergyTransfer:Zone:OFFICE_PRIVATE_0 [J]
Zone,Meter,General:Heating:EnergyTransfer:Zone:OFFICE_PRIVATE_0 [J]
Zone,Meter,Cooling:EnergyTransfer:Zone:OFFICE_PRIVATE_0 [J]
Zone,Meter,General:Cooling:EnergyTransfer:Zone:OFFICE_PRIVATE_0 [J]
Zone,Meter,EnergyTransfer:Zone:LOBBY_1 [J]
Zone,Meter,Heating:EnergyTransfer:Zone:LOBBY_1 [J]
Zone,Meter,General:Heating:EnergyTransfer:Zone:LOBBY_1 [J]
Zone,Meter,Cooling:EnergyTransfer:Zone:LOBBY_1 [J]
Zone,Meter,General:Cooling:EnergyTransfer:Zone:LOBBY_1 [J]
Zone,Meter,EnergyTransfer:Zone:OFFICE_PRIVATE_1 [J]
Zone,Meter,Heating:EnergyTransfer:Zone:OFFICE_PRIVATE_1 [J]
Zone,Meter,General:Heating:EnergyTransfer:Zone:OFFICE_PRIVATE_1 [J]
Zone,Meter,Cooling:EnergyTransfer:Zone:OFFICE_PRIVATE_1 [J]
Zone,Meter,General:Cooling:EnergyTransfer:Zone:OFFICE_PRIVATE_1 [J]
Zone,Meter,EnergyTransfer:Zone:BREAK_ROOM_2 [J]
Zone,Meter,Heating:EnergyTransfer:Zone:BREAK_ROOM_2 [J]
Zone,Meter,General:Heating:EnergyTransfer:Zone:BREAK_ROOM_2 [J]
Zone,Meter,Cooling:EnergyTransfer:Zone:BREAK_ROOM_2 [J]
Zone,Meter,General:Cooling:EnergyTransfer:Zone:BREAK_ROOM_2 [J]
Zone,Meter,EnergyTransfer:Zone:OFFICE_PRIVATE_2 [J]
Zone,Meter,Heating:EnergyTransfer:Zone:OFFICE_PRIVATE_2 [J]
Zone,Meter,General:Heating:EnergyTransfer:Zone:OFFICE_PRIVATE_2 [J]
Zone,Meter,Cooling:EnergyTransfer:Zone:OFFICE_PRIVATE_2 [J]
Zone,Meter,General:Cooling:EnergyTransfer:Zone:OFFICE_PRIVATE_2 [J]
Zone,Meter,EnergyTransfer:Zone:STORAGE_2 [J]
Zone,Meter,Heating:EnergyTransfer:Zone:STORAGE_2 [J]
Zone,Meter,General:Heating:EnergyTransfer:Zone:STORAGE_2 [J]
Zone,Meter,Cooling:EnergyTransfer:Zone:STORAGE_2 [J]
Zone,Meter,General:Cooling:EnergyTransfer:Zone:STORAGE_2 [J]
Zone,Meter,EnergyTransfer:Zone:MECHANICAL_3 [J]
Zone,Meter,Heating:EnergyTransfer:Zone:MECHANICAL_3 [J]
Zone,Meter,General:Heating:EnergyTransfer:Zone:MECHANICAL_3 [J]
Zone,Meter,Cooling:EnergyTransfer:Zone:MECHANICAL_3 [J]
Zone,Meter,General:Cooling:EnergyTransfer:Zone:MECHANICAL_3 [J]
Zone,Meter,EnergyTransfer:Zone:OFFICE_PRIVATE_3 [J]
Zone,Meter,Heating:EnergyTransfer:Zone:OFFICE_PRIVATE_3 [J]
Zone,Meter,General:Heating:EnergyTransfer:Zone:OFFICE_PRIVATE_3 [J]
Zone,Meter,Cooling:EnergyTransfer:Zone:OFFICE_PRIVATE_3 [J]
Zone,Meter,General:Cooling:EnergyTransfer:Zone:OFFICE_PRIVATE_3 [J]
Zone,Meter,EnergyTransfer:Zone:OFFICE_PRIVATE_4 [J]
Zone,Meter,Heating:EnergyTransfer:Zone:OFFICE_PRIVATE_4 [J]
Zone,Meter,General:Heating:EnergyTransfer:Zone:OFFICE_PRIVATE_4 [J]
Zone,Meter,Cooling:EnergyTransfer:Zone:OFFICE_PRIVATE_4 [J]
Zone,Meter,General:Cooling:EnergyTransfer:Zone:OFFICE_PRIVATE_4 [J]
Zone,Meter,EnergyTransfer:Zone:STORAGE_4 [J]
Zone,Meter,Heating:EnergyTransfer:Zone:STORAGE_4 [J]
Zone,Meter,General:Heating:EnergyTransfer:Zone:STORAGE_4 [J]
Zone,Meter,Cooling:EnergyTransfer:Zone:STORAGE_4 [J]
Zone,Meter,General:Cooling:EnergyTransfer:Zone:STORAGE_4 [J]
Zone,Meter,EnergyTransfer:Zone:BREAK_ROOM_6 [J]
Zone,Meter,Heating:EnergyTransfer:Zone:BREAK_ROOM_6 [J]
Zone,Meter,General:Heating:EnergyTransfer:Zone:BREAK_ROOM_6 [J]
Zone,Meter,Cooling:EnergyTransfer:Zone:BREAK_ROOM_6 [J]
Zone,Meter,General:Cooling:EnergyTransfer:Zone:BREAK_ROOM_6 [J]
Zone,Meter,EnergyTransfer:Zone:BREAK_ROOM_8 [J]
Zone,Meter,Heating:EnergyTransfer:Zone:BREAK_ROOM_8 [J]
Zone,Meter,General:Heating:EnergyTransfer:Zone:BREAK_ROOM_8 [J]
Zone,Meter,Cooling:EnergyTransfer:Zone:BREAK_ROOM_8 [J]
Zone,Meter,General:Cooling:EnergyTransfer:Zone:BREAK_ROOM_8 [J]
Zone,Meter,EnergyTransfer:Zone:STORAGE_8 [J]
Zone,Meter,Heating:EnergyTransfer:Zone:STORAGE_8 [J]
Zone,Meter,General:Heating:EnergyTransfer:Zone:STORAGE_8 [J]
Zone,Meter,Cooling:EnergyTransfer:Zone:STORAGE_8 [J]
Zone,Meter,General:Cooling:EnergyTransfer:Zone:STORAGE_8 [J]
Zone,Meter,EnergyTransfer:Zone:BREAK_ROOM_11 [J]
Zone,Meter,Heating:EnergyTransfer:Zone:BREAK_ROOM_11 [J]
Zone,Meter,General:Heating:EnergyTransfer:Zone:BREAK_ROOM_11 [J]
Zone,Meter,Cooling:EnergyTransfer:Zone:BREAK_ROOM_11 [J]
Zone,Meter,General:Cooling:EnergyTransfer:Zone:BREAK_ROOM_11 [J]
Zone,Meter,EnergyTransfer:Zone:CONFERENCE_13 [J]
Zone,Meter,Heating:EnergyTransfer:Zone:CONFERENCE_13 [J]
Zone,Meter,General:Heating:EnergyTransfer:Zone:CONFERENCE_13 [J]
Zone,Meter,Cooling:EnergyTransfer:Zone:CONFERENCE_13 [J]
Zone,Meter,General:Cooling:EnergyTransfer:Zone:CONFERENCE_13 [J]
Zone,Meter,EnergyTransfer:Zone:STORAGE_13 [J]
Zone,Meter,Heating:EnergyTransfer:Zone:STORAGE_13 [J]
Zone,Meter,General:Heating:EnergyTransfer:Zone:STORAGE_13 [J]
Zone,Meter,Cooling:EnergyTransfer:Zone:STORAGE_13 [J]
Zone,Meter,General:Cooling:EnergyTransfer:Zone:STORAGE_13 [J]
Zone,Meter,EnergyTransfer:Zone:LOBBY_14 [J]
Zone,Meter,Heating:EnergyTransfer:Zone:LOBBY_14 [J]
Zone,Meter,General:Heating:EnergyTransfer:Zone:LOBBY_14 [J]
Zone,Meter,Cooling:EnergyTransfer:Zone:LOBBY_14 [J]
Zone,Meter,General:Cooling:EnergyTransfer:Zone:LOBBY_14 [J]
Zone,Meter,EnergyTransfer:Zone:CONFERENCE_14 [J]
Zone,Meter,Heating:EnergyTransfer:Zone:CONFERENCE_14 [J]
Zone,Meter,General:Heating:EnergyTransfer:Zone:CONFERENCE_14 [J]
Zone,Meter,Cooling:EnergyTransfer:Zone:CONFERENCE_14 [J]
Zone,Meter,General:Cooling:EnergyTransfer:Zone:CONFERENCE_14 [J]
Zone,Meter,EnergyTransfer:Zone:BREAK_ROOM_14 [J]
Zone,Meter,Heating:EnergyTransfer:Zone:BREAK_ROOM_14 [J]
Zone,Meter,General:Heating:EnergyTransfer:Zone:BREAK_ROOM_14 [J]
Zone,Meter,Cooling:EnergyTransfer:Zone:BREAK_ROOM_14 [J]
Zone,Meter,General:Cooling:EnergyTransfer:Zone:BREAK_ROOM_14 [J]
Zone,Meter,EnergyTransfer:Zone:MECHANICAL_14 [J]
Zone,Meter,Heating:EnergyTransfer:Zone:MECHANICAL_14 [J]
Zone,Meter,General:Heating:EnergyTransfer:Zone:MECHANICAL_14 [J]
Zone,Meter,Cooling:EnergyTransfer:Zone:MECHANICAL_14 [J]
Zone,Meter,General:Cooling:EnergyTransfer:Zone:MECHANICAL_14 [J]
Zone,Meter,EnergyTransfer:Zone:CONFERENCE_15 [J]
Zone,Meter,Heating:EnergyTransfer:Zone:CONFERENCE_15 [J]
Zone,Meter,General:Heating:EnergyTransfer:Zone:CONFERENCE_15 [J]
Zone,Meter,Cooling:EnergyTransfer:Zone:CONFERENCE_15 [J]
Zone,Meter,General:Cooling:EnergyTransfer:Zone:CONFERENCE_15 [J]
Zone,Meter,EnergyTransfer:Zone:STORAGE_15 [J]
Zone,Meter,Heating:EnergyTransfer:Zone:STORAGE_15 [J]
Zone,Meter,General:Heating:EnergyTransfer:Zone:STORAGE_15 [J]
Zone,Meter,Cooling:EnergyTransfer:Zone:STORAGE_15 [J]
Zone,Meter,General:Cooling:EnergyTransfer:Zone:STORAGE_15 [J]
Zone,Meter,EnergyTransfer:Zone:BREAK_ROOM_16 [J]
Zone,Meter,Heating:EnergyTransfer:Zone:BREAK_ROOM_16 [J]
Zone,Meter,General:Heating:EnergyTransfer:Zone:BREAK_ROOM_16 [J]
Zone,Meter,Cooling:EnergyTransfer:Zone:BREAK_ROOM_16 [J]
Zone,Meter,General:Cooling:EnergyTransfer:Zone:BREAK_ROOM_16 [J]
Zone,Meter,EnergyTransfer:Zone:OFFICE_OPEN_16 [J]
Zone,Meter,Heating:EnergyTransfer:Zone:OFFICE_OPEN_16 [J]
Zone,Meter,General:Heating:EnergyTransfer:Zone:OFFICE_OPEN_16 [J]
Zone,Meter,Cooling:EnergyTransfer:Zone:OFFICE_OPEN_16 [J]
Zone,Meter,General:Cooling:EnergyTransfer:Zone:OFFICE_OPEN_16 [J]
Zone,Meter,EnergyTransfer:Zone:BREAK_ROOM_18 [J]
Zone,Meter,Heating:EnergyTransfer:Zone:BREAK_ROOM_18 [J]
Zone,Meter,General:Heating:EnergyTransfer:Zone:BREAK_ROOM_18 [J]
Zone,Meter,Cooling:EnergyTransfer:Zone:BREAK_ROOM_18 [J]
Zone,Meter,General:Cooling:EnergyTransfer:Zone:BREAK_ROOM_18 [J]
Zone,Meter,EnergyTransfer:Zone:OFFICE_PRIVATE_18 [J]
Zone,Meter,Heating:EnergyTransfer:Zone:OFFICE_PRIVATE_18 [J]
Zone,Meter,General:Heating:EnergyTransfer:Zone:OFFICE_PRIVATE_18 [J]
Zone,Meter,Cooling:EnergyTransfer:Zone:OFFICE_PRIVATE_18 [J]
Zone,Meter,General:Cooling:EnergyTransfer:Zone:OFFICE_PRIVATE_18 [J]
Zone,Meter,EnergyTransfer:Zone:CONFERENCE_19 [J]
Zone,Meter,Heating:EnergyTransfer:Zone:CONFERENCE_19 [J]
Zone,Meter,General:Heating:EnergyTransfer:Zone:CONFERENCE_19 [J]
Zone,Meter,Cooling:EnergyTransfer:Zone:CONFERENCE_19 [J]
Zone,Meter,General:Cooling:EnergyTransfer:Zone:CONFERENCE_19 [J]
Zone,Meter,EnergyTransfer:Zone:MECHANICAL_19 [J]
Zone,Meter,Heating:EnergyTransfer:Zone:MECHANICAL_19 [J]
Zone,Meter,General:Heating:EnergyTransfer:Zone:MECHANICAL_19 [J]
Zone,Meter,Cooling:EnergyTransfer:Zone:MECHANICAL_19 [J]
Zone,Meter,General:Cooling:EnergyTransfer:Zone:MECHANICAL_19 [J]
Zone,Meter,EnergyTransfer:Zone:OFFICE_PRIVATE_19 [J]
Zone,Meter,Heating:EnergyTransfer:Zone:OFFICE_PRIVATE_19 [J]
Zone,Meter,General:Heating:EnergyTransfer:Zone:OFFICE_PRIVATE_19 [J]
Zone,Meter,Cooling:EnergyTransfer:Zone:OFFICE_PRIVATE_19 [J]
Zone,Meter,General:Cooling:EnergyTransfer:Zone:OFFICE_PRIVATE_19 [J]
Zone,Meter,EnergyTransfer:Zone:STORAGE_22 [J]
Zone,Meter,Heating:EnergyTransfer:Zone:STORAGE_22 [J]
Zone,Meter,General:Heating:EnergyTransfer:Zone:STORAGE_22 [J]
Zone,Meter,Cooling:EnergyTransfer:Zone:STORAGE_22 [J]
Zone,Meter,General:Cooling:EnergyTransfer:Zone:STORAGE_22 [J]
Zone,Meter,EnergyTransfer:Zone:STORAGE_24 [J]
Zone,Meter,Heating:EnergyTransfer:Zone:STORAGE_24 [J]
Zone,Meter,General:Heating:EnergyTransfer:Zone:STORAGE_24 [J]
Zone,Meter,Cooling:EnergyTransfer:Zone:STORAGE_24 [J]
Zone,Meter,General:Cooling:EnergyTransfer:Zone:STORAGE_24 [J]
Zone,Meter,EnergyTransfer:Zone:BREAK_ROOM_25 [J]
Zone,Meter,Heating:EnergyTransfer:Zone:BREAK_ROOM_25 [J]
Zone,Meter,General:Heating:EnergyTransfer:Zone:BREAK_ROOM_25 [J]
Zone,Meter,Cooling:EnergyTransfer:Zone:BREAK_ROOM_25 [J]
Zone,Meter,General:Cooling:EnergyTransfer:Zone:BREAK_ROOM_25 [J]
Zone,Meter,EnergyTransfer:Zone:OFFICE_PRIVATE_25 [J]
Zone,Meter,Heating:EnergyTransfer:Zone:OFFICE_PRIVATE_25 [J]
Zone,Meter,General:Heating:EnergyTransfer:Zone:OFFICE_PRIVATE_25 [J]
Zone,Meter,Cooling:EnergyTransfer:Zone:OFFICE_PRIVATE_25 [J]
Zone,Meter,General:Cooling:EnergyTransfer:Zone:OFFICE_PRIVATE_25 [J]
Zone,Meter,EnergyTransfer:Zone:STORAGE_25 [J]
Zone,Meter,Heating:EnergyTransfer:Zone:STORAGE_25 [J]
Zone,Meter,General:Heating:EnergyTransfer:Zone:STORAGE_25 [J]
Zone,Meter,Cooling:EnergyTransfer:Zone:STORAGE_25 [J]
Zone,Meter,General:Cooling:EnergyTransfer:Zone:STORAGE_25 [J]
Zone,Meter,EnergyTransfer:Zone:STORAGE_26 [J]
Zone,Meter,Heating:EnergyTransfer:Zone:STORAGE_26 [J]
Zone,Meter,General:Heating:EnergyTransfer:Zone:STORAGE_26 [J]
Zone,Meter,Cooling:EnergyTransfer:Zone:STORAGE_26 [J]
Zone,Meter,General:Cooling:EnergyTransfer:Zone:STORAGE_26 [J]
Zone,Meter,EnergyTransfer:Zone:CONFERENCE_27 [J]
Zone,Meter,Heating:EnergyTransfer:Zone:CONFERENCE_27 [J]
Zone,Meter,General:Heating:EnergyTransfer:Zone:CONFERENCE_27 [J]
Zone,Meter,Cooling:EnergyTransfer:Zone:CONFERENCE_27 [J]
Zone,Meter,General:Cooling:EnergyTransfer:Zone:CONFERENCE_27 [J]
Zone,Meter,EnergyTransfer:Zone:BREAK_ROOM_27 [J]
Zone,Meter,Heating:EnergyTransfer:Zone:BREAK_ROOM_27 [J]
Zone,Meter,General:Heating:EnergyTransfer:Zone:BREAK_ROOM_27 [J]
Zone,Meter,Cooling:EnergyTransfer:Zone:BREAK_ROOM_27 [J]
Zone,Meter,General:Cooling:EnergyTransfer:Zone:BREAK_ROOM_27 [J]
Zone,Meter,EnergyTransfer:Zone:OFFICE_PRIVATE_28 [J]
Zone,Meter,Heating:EnergyTransfer:Zone:OFFICE_PRIVATE_28 [J]
Zone,Meter,General:Heating:EnergyTransfer:Zone:OFFICE_PRIVATE_28 [J]
Zone,Meter,Cooling:EnergyTransfer:Zone:OFFICE_PRIVATE_28 [J]
Zone,Meter,General:Cooling:EnergyTransfer:Zone:OFFICE_PRIVATE_28 [J]
Zone,Meter,EnergyTransfer:Zone:BREAK_ROOM_29 [J]
Zone,Meter,Heating:EnergyTransfer:Zone:BREAK_ROOM_29 [J]
Zone,Meter,General:Heating:EnergyTransfer:Zone:BREAK_ROOM_29 [J]
Zone,Meter,Cooling:EnergyTransfer:Zone:BREAK_ROOM_29 [J]
Zone,Meter,General:Cooling:EnergyTransfer:Zone:BREAK_ROOM_29 [J]
Zone,Meter,EnergyTransfer:Zone:STORAGE_29 [J]
Zone,Meter,Heating:EnergyTransfer:Zone:STORAGE_29 [J]
Zone,Meter,General:Heating:EnergyTransfer:Zone:STORAGE_29 [J]
Zone,Meter,Cooling:EnergyTransfer:Zone:STORAGE_29 [J]
Zone,Meter,General:Cooling:EnergyTransfer:Zone:STORAGE_29 [J]
Zone,Meter,EnergyTransfer:Zone:CONFERENCE_30 [J]
Zone,Meter,Heating:EnergyTransfer:Zone:CONFERENCE_30 [J]
Zone,Meter,General:Heating:EnergyTransfer:Zone:CONFERENCE_30 [J]
Zone,Meter,Cooling:EnergyTransfer:Zone:CONFERENCE_30 [J]
Zone,Meter,General:Cooling:EnergyTransfer:Zone:CONFERENCE_30 [J]
Zone,Meter,EnergyTransfer:Zone:STORAGE_31 [J]
Zone,Meter,Heating:EnergyTransfer:Zone:STORAGE_31 [J]
Zone,Meter,General:Heating:EnergyTransfer:Zone:STORAGE_31 [J]
Zone,Meter,Cooling:EnergyTransfer:Zone:STORAGE_31 [J]
Zone,Meter,General:Cooling:EnergyTransfer:Zone:STORAGE_31 [J]
Zone,Meter,EnergyTransfer:Zone:BREAK_ROOM_32 [J]
Zone,Meter,Heating:EnergyTransfer:Zone:BREAK_ROOM_32 [J]
Zone,Meter,General:Heating:EnergyTransfer:Zone:BREAK_ROOM_32 [J]
Zone,Meter,Cooling:EnergyTransfer:Zone:BREAK_ROOM_32 [J]
Zone,Meter,General:Cooling:EnergyTransfer:Zone:BREAK_ROOM_32 [J]
Zone,Meter,EnergyTransfer:Zone:MECHANICAL_32 [J]
Zone,Meter,Heating:EnergyTransfer:Zone:MECHANICAL_32 [J]
Zone,Meter,General:Heating:EnergyTransfer:Zone:MECHANICAL_32 [J]
Zone,Meter,Cooling:EnergyTransfer:Zone:MECHANICAL_32 [J]
Zone,Meter,General:Cooling:EnergyTransfer:Zone:MECHANICAL_32 [J]
Zone,Meter,EnergyTransfer:Zone:STORAGE_32 [J]
Zone,Meter,Heating:EnergyTransfer:Zone:STORAGE_32 [J]
Zone,Meter,General:Heating:EnergyTransfer:Zone:STORAGE_32 [J]
Zone,Meter,Cooling:EnergyTransfer:Zone:STORAGE_32 [J]
Zone,Meter,General:Cooling:EnergyTransfer:Zone:STORAGE_32 [J]
Zone,Meter,EnergyTransfer:Zone:OFFICE_PRIVATE_33 [J]
Zone,Meter,Heating:EnergyTransfer:Zone:OFFICE_PRIVATE_33 [J]
Zone,Meter,General:Heating:EnergyTransfer:Zone:OFFICE_PRIVATE_33 [J]
Zone,Meter,Cooling:EnergyTransfer:Zone:OFFICE_PRIVATE_33 [J]
Zone,Meter,General:Cooling:EnergyTransfer:Zone:OFFICE_PRIVATE_33 [J]
Zone,Meter,EnergyTransfer:Zone:OFFICE_PRIVATE_34 [J]
Zone,Meter,Heating:EnergyTransfer:Zone:OFFICE_PRIVATE_34 [J]
Zone,Meter,General:Heating:EnergyTransfer:Zone:OFFICE_PRIVATE_34 [J]
Zone,Meter,Cooling:EnergyTransfer:Zone:OFFICE_PRIVATE_34 [J]
Zone,Meter,General:Cooling:EnergyTransfer:Zone:OFFICE_PRIVATE_34 [J]
Zone,Meter,EnergyTransfer:Zone:STORAGE_34 [J]
Zone,Meter,Heating:EnergyTransfer:Zone:STORAGE_34 [J]
Zone,Meter,General:Heating:EnergyTransfer:Zone:STORAGE_34 [J]
Zone,Meter,Cooling:EnergyTransfer:Zone:STORAGE_34 [J]
Zone,Meter,General:Cooling:EnergyTransfer:Zone:STORAGE_34 [J]
Zone,Meter,EnergyTransfer:Zone:MECHANICAL_35 [J]
Zone,Meter,Heating:EnergyTransfer:Zone:MECHANICAL_35 [J]
Zone,Meter,General:Heating:EnergyTransfer:Zone:MECHANICAL_35 [J]
Zone,Meter,Cooling:EnergyTransfer:Zone:MECHANICAL_35 [J]
Zone,Meter,General:Cooling:EnergyTransfer:Zone:MECHANICAL_35 [J]
Zone,Meter,EnergyTransfer:Zone:CONFERENCE_36 [J]
Zone,Meter,Heating:EnergyTransfer:Zone:CONFERENCE_36 [J]
Zone,Meter,General:Heating:EnergyTransfer:Zone:CONFERENCE_36 [J]
Zone,Meter,Cooling:EnergyTransfer:Zone:CONFERENCE_36 [J]
Zone,Meter,General:Cooling:EnergyTransfer:Zone:CONFERENCE_36 [J]
Zone,Meter,EnergyTransfer:Zone:OFFICE_PRIVATE_36 [J]
Zone,Meter,Heating:EnergyTransfer:Zone:OFFICE_PRIVATE_36 [J]
Zone,Meter,General:Heating:EnergyTransfer:Zone:OFFICE_PRIVATE_36 [J]
Zone,Meter,Cooling:EnergyTransfer:Zone:OFFICE_PRIVATE_36 [J]
Zone,Meter,General:Cooling:EnergyTransfer:Zone:OFFICE_PRIVATE_36 [J]
Zone,Meter,EnergyTransfer:Zone:OFFICE_PRIVATE_37 [J]
Zone,Meter,Heating:EnergyTransfer:Zone:OFFICE_PRIVATE_37 [J]
Zone,Meter,General:Heating:EnergyTransfer:Zone:OFFICE_PRIVATE_37 [J]
Zone,Meter,Cooling:EnergyTransfer:Zone:OFFICE_PRIVATE_37 [J]
Zone,Meter,General:Cooling:EnergyTransfer:Zone:OFFICE_PRIVATE_37 [J]
Zone,Meter,EnergyTransfer:Zone:STORAGE_38 [J]
Zone,Meter,Heating:EnergyTransfer:Zone:STORAGE_38 [J]
Zone,Meter,General:Heating:EnergyTransfer:Zone:STORAGE_38 [J]
Zone,Meter,Cooling:EnergyTransfer:Zone:STORAGE_38 [J]
Zone,Meter,General:Cooling:EnergyTransfer:Zone:STORAGE_38 [J]
Zone,Meter,EnergyTransfer:Zone:CONFERENCE_39 [J]
Zone,Meter,Heating:EnergyTransfer:Zone:CONFERENCE_39 [J]
Zone,Meter,General:Heating:EnergyTransfer:Zone:CONFERENCE_39 [J]
Zone,Meter,Cooling:EnergyTransfer:Zone:CONFERENCE_39 [J]
Zone,Meter,General:Cooling:EnergyTransfer:Zone:CONFERENCE_39 [J]
Zone,Meter,EnergyTransfer:Zone:BREAK_ROOM_40 [J]
Zone,Meter,Heating:EnergyTransfer:Zone:BREAK_ROOM_40 [J]
Zone,Meter,General:Heating:EnergyTransfer:Zone:BREAK_ROOM_40 [J]
Zone,Meter,Cooling:EnergyTransfer:Zone:BREAK_ROOM_40 [J]
Zone,Meter,General:Cooling:EnergyTransfer:Zone:BREAK_ROOM_40 [J]
Zone,Meter,EnergyTransfer:Zone:MECHANICAL_40 [J]
Zone,Meter,Heating:EnergyTransfer:Zone:MECHANICAL_40 [J]
Zone,Meter,General:Heating:EnergyTransfer:Zone:MECHANICAL_40 [J]
Zone,Meter,Cooling:EnergyTransfer:Zone:MECHANICAL_40 [J]
Zone,Meter,General:Cooling:EnergyTransfer:Zone:MECHANICAL_40 [J]
Zone,Meter,EnergyTransfer:Zone:MECHANICAL_41 [J]
Zone,Meter,Heating:EnergyTransfer:Zone:MECHANICAL_41 [J]
Zone,Meter,General:Heating:EnergyTransfer:Zone:MECHANICAL_41 [J]
Zone,Meter,Cooling:EnergyTransfer:Zone:MECHANICAL_41 [J]
Zone,Meter,General:Cooling:EnergyTransfer:Zone:MECHANICAL_41 [J]
Zone,Meter,EnergyTransfer:Zone:OFFICE_PRIVATE_41 [J]
Zone,Meter,Heating:EnergyTransfer:Zone:OFFICE_PRIVATE_41 [J]
Zone,Meter,General:Heating:EnergyTransfer:Zone:OFFICE_PRIVATE_41 [J]
Zone,Meter,Cooling:EnergyTransfer:Zone:OFFICE_PRIVATE_41 [J]
Zone,Meter,General:Cooling:EnergyTransfer:Zone:OFFICE_PRIVATE_41 [J]
Zone,Meter,EnergyTransfer:Zone:BREAK_ROOM_42 [J]
Zone,Meter,Heating:EnergyTransfer:Zone:BREAK_ROOM_42 [J]
Zone,Meter,General:Heating:EnergyTransfer:Zone:BREAK_ROOM_42 [J]
Zone,Meter,Cooling:EnergyTransfer:Zone:BREAK_ROOM_42 [J]
Zone,Meter,General:Cooling:EnergyTransfer:Zone:BREAK_ROOM_42 [J]
Zone,Meter,EnergyTransfer:Zone:STORAGE_42 [J]
Zone,Meter,Heating:EnergyTransfer:Zone:STORAGE_42 [J]
Zone,Meter,General:Heating:EnergyTransfer:Zone:STORAGE_42 [J]
Zone,Meter,Cooling:EnergyTransfer:Zone:STORAGE_42 [J]
Zone,Meter,General:Cooling:EnergyTransfer:Zone:STORAGE_42 [J]
Zone,Meter,EnergyTransfer:Zone:LOBBY_43 [J]
Zone,Meter,Heating:EnergyTransfer:Zone:LOBBY_43 [J]
Zone,Meter,General:Heating:EnergyTransfer:Zone:LOBBY_43 [J]
Zone,Meter,Cooling:EnergyTransfer:Zone:LOBBY_43 [J]
Zone,Meter,General:Cooling:EnergyTransfer:Zone:LOBBY_43 [J]
Zone,Meter,EnergyTransfer:Zone:STORAGE_43 [J]
Zone,Meter,Heating:EnergyTransfer:Zone:STORAGE_43 [J]
Zone,Meter,General:Heating:EnergyTransfer:Zone:STORAGE_43 [J]
Zone,Meter,Cooling:EnergyTransfer:Zone:STORAGE_43 [J]
Zone,Meter,General:Cooling:EnergyTransfer:Zone:STORAGE_43 [J]
Zone,Meter,EnergyTransfer:Zone:BREAK_ROOM_44 [J]
Zone,Meter,Heating:EnergyTransfer:Zone:BREAK_ROOM_44 [J]
Zone,Meter,General:Heating:EnergyTransfer:Zone:BREAK_ROOM_44 [J]
Zone,Meter,Cooling:EnergyTransfer:Zone:BREAK_ROOM_44 [J]
Zone,Meter,General:Cooling:EnergyTransfer:Zone:BREAK_ROOM_44 [J]
Zone,Meter,EnergyTransfer:Zone:OFFICE_PRIVATE_44 [J]
Zone,Meter,Heating:EnergyTransfer:Zone:OFFICE_PRIVATE_44 [J]
Zone,Meter,General:Heating:EnergyTransfer:Zone:OFFICE_PRIVATE_44 [J]
Zone,Meter,Cooling:EnergyTransfer:Zone:OFFICE_PRIVATE_44 [J]
Zone,Meter,General:Cooling:EnergyTransfer:Zone:OFFICE_PRIVATE_44 [J]
Zone,Meter,EnergyTransfer:Zone:CONFERENCE_45 [J]
Zone,Meter,Heating:EnergyTransfer:Zone:CONFERENCE_45 [J]
Zone,Meter,General:Heating:EnergyTransfer:Zone:CONFERENCE_45 [J]
Zone,Meter,Cooling:EnergyTransfer:Zone:CONFERENCE_45 [J]
Zone,Meter,General:Cooling:EnergyTransfer:Zone:CONFERENCE_45 [J]
Zone,Meter,EnergyTransfer:Zone:OFFICE_PRIVATE_45 [J]
Zone,Meter,Heating:EnergyTransfer:Zone:OFFICE_PRIVATE_45 [J]
Zone,Meter,General:Heating:EnergyTransfer:Zone:OFFICE_PRIVATE_45 [J]
Zone,Meter,Cooling:EnergyTransfer:Zone:OFFICE_PRIVATE_45 [J]
Zone,Meter,General:Cooling:EnergyTransfer:Zone:OFFICE_PRIVATE_45 [J]
Zone,Meter,EnergyTransfer:Zone:BREAK_ROOM_46 [J]
Zone,Meter,Heating:EnergyTransfer:Zone:BREAK_ROOM_46 [J]
Zone,Meter,General:Heating:EnergyTransfer:Zone:BREAK_ROOM_46 [J]
Zone,Meter,Cooling:EnergyTransfer:Zone:BREAK_ROOM_46 [J]
Zone,Meter,General:Cooling:EnergyTransfer:Zone:BREAK_ROOM_46 [J]
Zone,Meter,EnergyTransfer:Zone:OFFICE_PRIVATE_47 [J]
Zone,Meter,Heating:EnergyTransfer:Zone:OFFICE_PRIVATE_47 [J]
Zone,Meter,General:Heating:EnergyTransfer:Zone:OFFICE_PRIVATE_47 [J]
Zone,Meter,Cooling:EnergyTransfer:Zone:OFFICE_PRIVATE_47 [J]
Zone,Meter,General:Cooling:EnergyTransfer:Zone:OFFICE_PRIVATE_47 [J]
Zone,Meter,EnergyTransfer:Zone:BREAK_ROOM_48 [J]
Zone,Meter,Heating:EnergyTransfer:Zone:BREAK_ROOM_48 [J]
Zone,Meter,General:Heating:EnergyTransfer:Zone:BREAK_ROOM_48 [J]
Zone,Meter,Cooling:EnergyTransfer:Zone:BREAK_ROOM_48 [J]
Zone,Meter,General:Cooling:EnergyTransfer:Zone:BREAK_ROOM_48 [J]
Zone,Meter,EnergyTransfer:Zone:STORAGE_48 [J]
Zone,Meter,Heating:EnergyTransfer:Zone:STORAGE_48 [J]
Zone,Meter,General:Heating:EnergyTransfer:Zone:STORAGE_48 [J]
Zone,Meter,Cooling:EnergyTransfer:Zone:STORAGE_48 [J]
Zone,Meter,General:Cooling:EnergyTransfer:Zone:STORAGE_48 [J]
Zone,Meter,EnergyTransfer:Zone:LOBBY_51 [J]
Zone,Meter,Heating:EnergyTransfer:Zone:LOBBY_51 [J]
Zone,Meter,General:Heating:EnergyTransfer:Zone:LOBBY_51 [J]
Zone,Meter,Cooling:EnergyTransfer:Zone:LOBBY_51 [J]
Zone,Meter,General:Cooling:EnergyTransfer:Zone:LOBBY_51 [J]
Zone,Meter,EnergyTransfer:Zone:CONFERENCE_51 [J]
Zone,Meter,Heating:EnergyTransfer:Zone:CONFERENCE_51 [J]
Zone,Meter,General:Heating:EnergyTransfer:Zone:CONFERENCE_51 [J]
Zone,Meter,Cooling:EnergyTransfer:Zone:CONFERENCE_51 [J]
Zone,Meter,General:Cooling:EnergyTransfer:Zone:CONFERENCE_51 [J]
Zone,Meter,EnergyTransfer:Zone:MECHANICAL_51 [J]
Zone,Meter,Heating:EnergyTransfer:Zone:MECHANICAL_51 [J]
Zone,Meter,General:Heating:EnergyTransfer:Zone:MECHANICAL_51 [J]
Zone,Meter,Cooling:EnergyTransfer:Zone:MECHANICAL_51 [J]
Zone,Meter,General:Cooling:EnergyTransfer:Zone:MECHANICAL_51 [J]
Zone,Meter,EnergyTransfer:Zone:OFFICE_PRIVATE_51 [J]
Zone,Meter,Heating:EnergyTransfer:Zone:OFFICE_PRIVATE_51 [J]
Zone,Meter,General:Heating:EnergyTransfer:Zone:OFFICE_PRIVATE_51 [J]
Zone,Meter,Cooling:EnergyTransfer:Zone:OFFICE_PRIVATE_51 [J]
Zone,Meter,General:Cooling:EnergyTransfer:Zone:OFFICE_PRIVATE_51 [J]
Zone,Meter,EnergyTransfer:Zone:MECHANICAL_52 [J]
Zone,Meter,Heating:EnergyTransfer:Zone:MECHANICAL_52 [J]
Zone,Meter,General:Heating:EnergyTransfer:Zone:MECHANICAL_52 [J]
Zone,Meter,Cooling:EnergyTransfer:Zone:MECHANICAL_52 [J]
Zone,Meter,General:Cooling:EnergyTransfer:Zone:MECHANICAL_52 [J]
Zone,Meter,EnergyTransfer:Zone:OFFICE_PRIVATE_52 [J]
Zone,Meter,Heating:EnergyTransfer:Zone:OFFICE_PRIVATE_52 [J]
Zone,Meter,General:Heating:EnergyTransfer:Zone:OFFICE_PRIVATE_52 [J]
Zone,Meter,Cooling:EnergyTransfer:Zone:OFFICE_PRIVATE_52 [J]
Zone,Meter,General:Cooling:EnergyTransfer:Zone:OFFICE_PRIVATE_52 [J]
Zone,Meter,EnergyTransfer:Zone:LOBBY_54 [J]
Zone,Meter,Heating:EnergyTransfer:Zone:LOBBY_54 [J]
Zone,Meter,General:Heating:EnergyTransfer:Zone:LOBBY_54 [J]
Zone,Meter,Cooling:EnergyTransfer:Zone:LOBBY_54 [J]
Zone,Meter,General:Cooling:EnergyTransfer:Zone:LOBBY_54 [J]
Zone,Meter,EnergyTransfer:Zone:BREAK_ROOM_54 [J]
Zone,Meter,Heating:EnergyTransfer:Zone:BREAK_ROOM_54 [J]
Zone,Meter,General:Heating:EnergyTransfer:Zone:BREAK_ROOM_54 [J]
Zone,Meter,Cooling:EnergyTransfer:Zone:BREAK_ROOM_54 [J]
Zone,Meter,General:Cooling:EnergyTransfer:Zone:BREAK_ROOM_54 [J]
Zone,Meter,EnergyTransfer:Zone:OFFICE_OPEN_54 [J]
Zone,Meter,Heating:EnergyTransfer:Zone:OFFICE_OPEN_54 [J]
Zone,Meter,General:Heating:EnergyTransfer:Zone:OFFICE_OPEN_54 [J]
Zone,Meter,Cooling:EnergyTransfer:Zone:OFFICE_OPEN_54 [J]
Zone,Meter,General:Cooling:EnergyTransfer:Zone:OFFICE_OPEN_54 [J]
Zone,Meter,EnergyTransfer:HVAC [J]
Zone,Meter,HeatingCoils:EnergyTransfer [J]
Zone,Meter,Electricity:HVAC [J]
Zone,Meter,Heating:Electricity [J]
Zone,Meter,General:Heating:Electricity [J]
Zone,Meter,Fans:Electricity [J]
Zone,Meter,General:Fans:Electricity [J]
Zone,Meter,CoolingCoils:EnergyTransfer [J]
Zone,Meter,Cooling:Electricity [J]
Zone,Meter,General:Cooling:Electricity [J]
Zone,Meter,ElectricityPurchased:Facility [J]
Zone,Meter,ElectricityPurchased:Plant [J]
Zone,Meter,Cogeneration:ElectricityPurchased [J]
Zone,Meter,General:Cogeneration:ElectricityPurchased [J]
Zone,Meter,ElectricitySurplusSold:Facility [J]
Zone,Meter,ElectricitySurplusSold:Plant [J]
Zone,Meter,Cogeneration:ElectricitySurplusSold [J]
Zone,Meter,General:Cogeneration:ElectricitySurplusSold [J]
Zone,Meter,ElectricityNet:Facility [J]
Zone,Meter,ElectricityNet:Plant [J]
Zone,Meter,Cogeneration:ElectricityNet [J]
Zone,Meter,General:Cogeneration:ElectricityNet [J]
Zone,Meter,Carbon Equivalent:Facility [kg]
Zone,Meter,CarbonEquivalentEmissions:Carbon Equivalent [kg]
