Program Version,EnergyPlus, Version 24.2.0-94a887817b, YMD=2025.11.02 18:37,
   ** Warning ** Site:GroundTemperature:BuildingSurface: Some values fall outside the range of 15-25C.
   **   ~~~   ** These values may be inappropriate.  Please consult the Input Output Reference for more details.
   ** Warning ** Weather file location will be used rather than entered (IDF) Location object.
   **   ~~~   ** ..Location object=SITE
   **   ~~~   ** ..Weather File Location=Chicago Ohare Intl Ap IL USA TMY3 WMO#=725300
   **   ~~~   ** ..due to location differences, Latitude difference=[1.37] degrees, Longitude difference=[14.27] degrees.
   **   ~~~   ** ..Time Zone difference=[2.0] hour(s), Elevation difference=[1910.00] percent, [191.00] meters.
   ** Warning ** ProcessScheduleInput: Schedule:Compact="BREAK_ROOM_LIGHTING" has missing day types in Through=12/31
   **   ~~~   ** Last "For" field=FOR: WEEKENDS
   **   ~~~   ** Missing day types="Holiday","SummerDesignDay","WinterDesignDay","CustomDay1","CustomDay2"
   **   ~~~   ** Missing day types will have 0.0 as Schedule Values
   ** Warning ** ProcessScheduleInput: Schedule:Compact="BREAK_ROOM_EQUIPMENT" has missing day types in Through=12/31
   **   ~~~   ** Last "For" field=FOR: WEEKENDS
   **   ~~~   ** Missing day types="Holiday","SummerDesignDay","WinterDesignDay","CustomDay1","CustomDay2"
   **   ~~~   ** Missing day types will have 0.0 as Schedule Values
   ** Warning ** ProcessScheduleInput: Schedule:Compact="CONFERENCE_OCCUPANCY" has missing day types in Through=12/31
   **   ~~~   ** Last "For" field=FOR: WEEKENDS
   **   ~~~   ** Missing day types="Holiday","SummerDesignDay","WinterDesignDay","CustomDay1","CustomDay2"
   **   ~~~   ** Missing day types will have 0.0 as Schedule Values
   ** Warning ** ProcessScheduleInput: Schedule:Compact="CONFERENCE_LIGHTING" has missing day types in Through=12/31
   **   ~~~   ** Last "For" field=FOR: WEEKENDS
   **   ~~~   ** Missing day types="Holiday","SummerDesignDay","WinterDesignDay","CustomDay1","CustomDay2"
   **   ~~~   ** Missing day types will have 0.0 as Schedule Values
   ** Warning ** ProcessScheduleInput: Schedule:Compact="CONFERENCE_EQUIPMENT" has missing day types in Through=12/31
   **   ~~~   ** Last "For" field=FOR: WEEKENDS
   **   ~~~   ** Missing day types="Holiday","SummerDesignDay","WinterDesignDay","CustomDay1","CustomDay2"
   **   ~~~   ** Missing day types will have 0.0 as Schedule Values
   ** Warning ** ProcessScheduleInput: Schedule:Compact="LOBBY_LIGHTING" has missing day types in Through=12/31
   **   ~~~   ** Last "For" field=FOR: WEEKENDS
   **   ~~~   ** Missing day types="Holiday","SummerDesignDay","WinterDesignDay","CustomDay1","CustomDay2"
   **   ~~~   ** Missing day types will have 0.0 as Schedule Values
   ** Warning ** ProcessScheduleInput: Schedule:Compact="LOBBY_EQUIPMENT" has missing day types in Through=12/31
   **   ~~~   ** Last "For" field=FOR: WEEKENDS
   **   ~~~   ** Missing day types="Holiday","SummerDesignDay","WinterDesignDay","CustomDay1","CustomDay2"
   **   ~~~   ** Missing day types will have 0.0 as Schedule Values
   ** Warning ** ProcessScheduleInput: Schedule:Compact="MECHANICAL_LIGHTING" has missing day types in Through=12/31
   **   ~~~   ** Last "For" field=FOR: WEEKENDS
   **   ~~~   ** Missing day types="Holiday","SummerDesignDay","WinterDesignDay","CustomDay1","CustomDay2"
   **   ~~~   ** Missing day types will have 0.0 as Schedule Values
   ** Warning ** ProcessScheduleInput: Schedule:Compact="MECHANICAL_EQUIPMENT" has missing day types in Through=12/31
   **   ~~~   ** Last "For" field=FOR: WEEKENDS
   **   ~~~   ** Missing day types="Holiday","SummerDesignDay","WinterDesignDay","CustomDay1","CustomDay2"
   **   ~~~   ** Missing day types will have 0.0 as Schedule Values
   ** Warning ** ProcessScheduleInput: Schedule:Compact="OFFICE_OPEN_OCCUPANCY" has missing day types in Through=12/31
   **   ~~~   ** Last "For" field=FOR: WEEKENDS
   **   ~~~   ** Missing day types="Holiday","SummerDesignDay","WinterDesignDay","CustomDay1","CustomDay2"
   **   ~~~   ** Missing day types will have 0.0 as Schedule Values
   ** Warning ** ProcessScheduleInput: Schedule:Compact="OFFICE_OPEN_LIGHTING" has missing day types in Through=12/31
   **   ~~~   ** Last "For" field=FOR: WEEKENDS
   **   ~~~   ** Missing day types="Holiday","SummerDesignDay","WinterDesignDay","CustomDay1","CustomDay2"
   **   ~~~   ** Missing day types will have 0.0 as Schedule Values
   ** Warning ** ProcessScheduleInput: Schedule:Compact="OFFICE_OPEN_EQUIPMENT" has missing day types in Through=12/31
   **   ~~~   ** Last "For" field=FOR: WEEKENDS
   **   ~~~   ** Missing day types="Holiday","SummerDesignDay","WinterDesignDay","CustomDay1","CustomDay2"
   **   ~~~   ** Missing day types will have 0.0 as Schedule Values
   ** Warning ** ProcessScheduleInput: Schedule:Compact="STORAGE_LIGHTING" has missing day types in Through=12/31
   **   ~~~   ** Last "For" field=FOR: WEEKENDS
   **   ~~~   ** Missing day types="Holiday","SummerDesignDay","WinterDesignDay","CustomDay1","CustomDay2"
   **   ~~~   ** Missing day types will have 0.0 as Schedule Values
   ** Warning ** ProcessScheduleInput: Schedule:Compact="STORAGE_EQUIPMENT" has missing day types in Through=12/31
   **   ~~~   ** Last "For" field=FOR: WEEKENDS
   **   ~~~   ** Missing day types="Holiday","SummerDesignDay","WinterDesignDay","CustomDay1","CustomDay2"
   **   ~~~   ** Missing day types will have 0.0 as Schedule Values
   ** Warning ** DeterminePolygonOverlap: Too many figures [>15000]  detected in an overlap calculation. Use Output:Diagnostics,DisplayExtraWarnings; for more details.
   ** Warning ** No Glare Calculation Daylighting Reference Point Name provided for object named: OFFICE_PRIVATE_0_DAYLIGHT
   **   ~~~   ** No glare calculation performed, and the simulation continues.
   ** Warning ** GetDaylightingControls: Fraction of zone or space controlled by the Daylighting reference points is < 1.0.
   **   ~~~   ** ..discovered in Daylighting:Controls="OFFICE_PRIVATE_0_DAYLIGHT", only 0.900 of the zone or space is controlled.
   ** Warning ** No Glare Calculation Daylighting Reference Point Name provided for object named: LOBBY_1_DAYLIGHT
   **   ~~~   ** No glare calculation performed, and the simulation continues.
   ** Warning ** GetDaylightingControls: Fraction of zone or space controlled by the Daylighting reference points is < 1.0.
   **   ~~~   ** ..discovered in Daylighting:Controls="LOBBY_1_DAYLIGHT", only 0.900 of the zone or space is controlled.
   ** Warning ** No Glare Calculation Daylighting Reference Point Name provided for object named: OFFICE_PRIVATE_1_DAYLIGHT
   **   ~~~   ** No glare calculation performed, and the simulation continues.
   ** Warning ** GetDaylightingControls: Fraction of zone or space controlled by the Daylighting reference points is < 1.0.
   **   ~~~   ** ..discovered in Daylighting:Controls="OFFICE_PRIVATE_1_DAYLIGHT", only 0.900 of the zone or space is controlled.
   ** Warning ** No Glare Calculation Daylighting Reference Point Name provided for object named: BREAK_ROOM_2_DAYLIGHT
   **   ~~~   ** No glare calculation performed, and the simulation continues.
   ** Warning ** GetDaylightingControls: Fraction of zone or space controlled by the Daylighting reference points is < 1.0.
   **   ~~~   ** ..discovered in Daylighting:Controls="BREAK_ROOM_2_DAYLIGHT", only 0.900 of the zone or space is controlled.
   ** Warning ** No Glare Calculation Daylighting Reference Point Name provided for object named: OFFICE_PRIVATE_2_DAYLIGHT
   **   ~~~   ** No glare calculation performed, and the simulation continues.
   ** Warning ** GetDaylightingControls: Fraction of zone or space controlled by the Daylighting reference points is < 1.0.
   **   ~~~   ** ..discovered in Daylighting:Controls="OFFICE_PRIVATE_2_DAYLIGHT", only 0.900 of the zone or space is controlled.
   ** Warning ** No Glare Calculation Daylighting Reference Point Name provided for object named: OFFICE_PRIVATE_3_DAYLIGHT
   **   ~~~   ** No glare calculation performed, and the simulation continues.
   ** Warning ** GetDaylightingControls: Fraction of zone or space controlled by the Daylighting reference points is < 1.0.
   **   ~~~   ** ..discovered in Daylighting:Controls="OFFICE_PRIVATE_3_DAYLIGHT", only 0.900 of the zone or space is controlled.
   ** Warning ** No Glare Calculation Daylighting Reference Point Name provided for object named: OFFICE_PRIVATE_4_DAYLIGHT
   **   ~~~   ** No glare calculation performed, and the simulation continues.
   ** Warning ** GetDaylightingControls: Fraction of zone or space controlled by the Daylighting reference points is < 1.0.
   **   ~~~   ** ..discovered in Daylighting:Controls="OFFICE_PRIVATE_4_DAYLIGHT", only 0.900 of the zone or space is controlled.
   ** Warning ** No Glare Calculation Daylighting Reference Point Name provided for object named: BREAK_ROOM_6_DAYLIGHT
   **   ~~~   ** No glare calculation performed, and the simulation continues.
   ** Warning ** GetDaylightingControls: Fraction of zone or space controlled by the Daylighting reference points is < 1.0.
   **   ~~~   ** ..discovered in Daylighting:Controls="BREAK_ROOM_6_DAYLIGHT", only 0.900 of the zone or space is controlled.
   ** Warning ** No Glare Calculation Daylighting Reference Point Name provided for object named: BREAK_ROOM_8_DAYLIGHT
   **   ~~~   ** No glare calculation performed, and the simulation continues.
   ** Warning ** GetDaylightingControls: Fraction of zone or space controlled by the Daylighting reference points is < 1.0.
   **   ~~~   ** ..discovered in Daylighting:Controls="BREAK_ROOM_8_DAYLIGHT", only 0.900 of the zone or space is controlled.
   ** Warning ** No Glare Calculation Daylighting Reference Point Name provided for object named: BREAK_ROOM_11_DAYLIGHT
   **   ~~~   ** No glare calculation performed, and the simulation continues.
   ** Warning ** GetDaylightingControls: Fraction of zone or space controlled by the Daylighting reference points is < 1.0.
   **   ~~~   ** ..discovered in Daylighting:Controls="BREAK_ROOM_11_DAYLIGHT", only 0.900 of the zone or space is controlled.
   ** Warning ** No Glare Calculation Daylighting Reference Point Name provided for object named: CONFERENCE_13_DAYLIGHT
   **   ~~~   ** No glare calculation performed, and the simulation continues.
   ** Warning ** GetDaylightingControls: Fraction of zone or space controlled by the Daylighting reference points is < 1.0.
   **   ~~~   ** ..discovered in Daylighting:Controls="CONFERENCE_13_DAYLIGHT", only 0.900 of the zone or space is controlled.
   ** Warning ** No Glare Calculation Daylighting Reference Point Name provided for object named: LOBBY_14_DAYLIGHT
   **   ~~~   ** No glare calculation performed, and the simulation continues.
   ** Warning ** GetDaylightingControls: Fraction of zone or space controlled by the Daylighting reference points is < 1.0.
   **   ~~~   ** ..discovered in Daylighting:Controls="LOBBY_14_DAYLIGHT", only 0.900 of the zone or space is controlled.
   ** Warning ** No Glare Calculation Daylighting Reference Point Name provided for object named: CONFERENCE_14_DAYLIGHT
   **   ~~~   ** No glare calculation performed, and the simulation continues.
   ** Warning ** GetDaylightingControls: Fraction of zone or space controlled by the Daylighting reference points is < 1.0.
   **   ~~~   ** ..discovered in Daylighting:Controls="CONFERENCE_14_DAYLIGHT", only 0.900 of the zone or space is controlled.
   ** Warning ** No Glare Calculation Daylighting Reference Point Name provided for object named: BREAK_ROOM_14_DAYLIGHT
   **   ~~~   ** No glare calculation performed, and the simulation continues.
   ** Warning ** GetDaylightingControls: Fraction of zone or space controlled by the Daylighting reference points is < 1.0.
   **   ~~~   ** ..discovered in Daylighting:Controls="BREAK_ROOM_14_DAYLIGHT", only 0.900 of the zone or space is controlled.
   ** Warning ** No Glare Calculation Daylighting Reference Point Name provided for object named: CONFERENCE_15_DAYLIGHT
   **   ~~~   ** No glare calculation performed, and the simulation continues.
   ** Warning ** GetDaylightingControls: Fraction of zone or space controlled by the Daylighting reference points is < 1.0.
   **   ~~~   ** ..discovered in Daylighting:Controls="CONFERENCE_15_DAYLIGHT", only 0.900 of the zone or space is controlled.
   ** Warning ** No Glare Calculation Daylighting Reference Point Name provided for object named: BREAK_ROOM_16_DAYLIGHT
   **   ~~~   ** No glare calculation performed, and the simulation continues.
   ** Warning ** GetDaylightingControls: Fraction of zone or space controlled by the Daylighting reference points is < 1.0.
   **   ~~~   ** ..discovered in Daylighting:Controls="BREAK_ROOM_16_DAYLIGHT", only 0.900 of the zone or space is controlled.
   ** Warning ** No Glare Calculation Daylighting Reference Point Name provided for object named: OFFICE_OPEN_16_DAYLIGHT
   **   ~~~   ** No glare calculation performed, and the simulation continues.
   ** Warning ** GetDaylightingControls: Fraction of zone or space controlled by the Daylighting reference points is < 1.0.
   **   ~~~   ** ..discovered in Daylighting:Controls="OFFICE_OPEN_16_DAYLIGHT", only 0.900 of the zone or space is controlled.
   ** Warning ** No Glare Calculation Daylighting Reference Point Name provided for object named: BREAK_ROOM_18_DAYLIGHT
   **   ~~~   ** No glare calculation performed, and the simulation continues.
   ** Warning ** GetDaylightingControls: Fraction of zone or space controlled by the Daylighting reference points is < 1.0.
   **   ~~~   ** ..discovered in Daylighting:Controls="BREAK_ROOM_18_DAYLIGHT", only 0.900 of the zone or space is controlled.
   ** Warning ** No Glare Calculation Daylighting Reference Point Name provided for object named: OFFICE_PRIVATE_18_DAYLIGHT
   **   ~~~   ** No glare calculation performed, and the simulation continues.
   ** Warning ** GetDaylightingControls: Fraction of zone or space controlled by the Daylighting reference points is < 1.0.
   **   ~~~   ** ..discovered in Daylighting:Controls="OFFICE_PRIVATE_18_DAYLIGHT", only 0.900 of the zone or space is controlled.
   ** Warning ** No Glare Calculation Daylighting Reference Point Name provided for object named: CONFERENCE_19_DAYLIGHT
   **   ~~~   ** No glare calculation performed, and the simulation continues.
   ** Warning ** GetDaylightingControls: Fraction of zone or space controlled by the Daylighting reference points is < 1.0.
   **   ~~~   ** ..discovered in Daylighting:Controls="CONFERENCE_19_DAYLIGHT", only 0.900 of the zone or space is controlled.
   ** Warning ** No Glare Calculation Daylighting Reference Point Name provided for object named: OFFICE_PRIVATE_19_DAYLIGHT
   **   ~~~   ** No glare calculation performed, and the simulation continues.
   ** Warning ** GetDaylightingControls: Fraction of zone or space controlled by the Daylighting reference points is < 1.0.
   **   ~~~   ** ..discovered in Daylighting:Controls="OFFICE_PRIVATE_19_DAYLIGHT", only 0.900 of the zone or space is controlled.
   ** Warning ** No Glare Calculation Daylighting Reference Point Name provided for object named: BREAK_ROOM_25_DAYLIGHT
   **   ~~~   ** No glare calculation performed, and the simulation continues.
   ** Warning ** GetDaylightingControls: Fraction of zone or space controlled by the Daylighting reference points is < 1.0.
   **   ~~~   ** ..discovered in Daylighting:Controls="BREAK_ROOM_25_DAYLIGHT", only 0.900 of the zone or space is controlled.
   ** Warning ** No Glare Calculation Daylighting Reference Point Name provided for object named: OFFICE_PRIVATE_25_DAYLIGHT
   **   ~~~   ** No glare calculation performed, and the simulation continues.
   ** Warning ** GetDaylightingControls: Fraction of zone or space controlled by the Daylighting reference points is < 1.0.
   **   ~~~   ** ..discovered in Daylighting:Controls="OFFICE_PRIVATE_25_DAYLIGHT", only 0.900 of the zone or space is controlled.
   ** Warning ** No Glare Calculation Daylighting Reference Point Name provided for object named: CONFERENCE_27_DAYLIGHT
   **   ~~~   ** No glare calculation performed, and the simulation continues.
   ** Warning ** GetDaylightingControls: Fraction of zone or space controlled by the Daylighting reference points is < 1.0.
   **   ~~~   ** ..discovered in Daylighting:Controls="CONFERENCE_27_DAYLIGHT", only 0.900 of the zone or space is controlled.
   ** Warning ** No Glare Calculation Daylighting Reference Point Name provided for object named: BREAK_ROOM_27_DAYLIGHT
   **   ~~~   ** No glare calculation performed, and the simulation continues.
   ** Warning ** GetDaylightingControls: Fraction of zone or space controlled by the Daylighting reference points is < 1.0.
   **   ~~~   ** ..discovered in Daylighting:Controls="BREAK_ROOM_27_DAYLIGHT", only 0.900 of the zone or space is controlled.
   ** Warning ** No Glare Calculation Daylighting Reference Point Name provided for object named: OFFICE_PRIVATE_28_DAYLIGHT
   **   ~~~   ** No glare calculation performed, and the simulation continues.
   ** Warning ** GetDaylightingControls: Fraction of zone or space controlled by the Daylighting reference points is < 1.0.
   **   ~~~   ** ..discovered in Daylighting:Controls="OFFICE_PRIVATE_28_DAYLIGHT", only 0.900 of the zone or space is controlled.
   ** Warning ** No Glare Calculation Daylighting Reference Point Name provided for object named: BREAK_ROOM_29_DAYLIGHT
   **   ~~~   ** No glare calculation performed, and the simulation continues.
   ** Warning ** GetDaylightingControls: Fraction of zone or space controlled by the Daylighting reference points is < 1.0.
   **   ~~~   ** ..discovered in Daylighting:Controls="BREAK_ROOM_29_DAYLIGHT", only 0.900 of the zone or space is controlled.
   ** Warning ** No Glare Calculation Daylighting Reference Point Name provided for object named: CONFERENCE_30_DAYLIGHT
   **   ~~~   ** No glare calculation performed, and the simulation continues.
   ** Warning ** GetDaylightingControls: Fraction of zone or space controlled by the Daylighting reference points is < 1.0.
   **   ~~~   ** ..discovered in Daylighting:Controls="CONFERENCE_30_DAYLIGHT", only 0.900 of the zone or space is controlled.
   ** Warning ** No Glare Calculation Daylighting Reference Point Name provided for object named: BREAK_ROOM_32_DAYLIGHT
   **   ~~~   ** No glare calculation performed, and the simulation continues.
   ** Warning ** GetDaylightingControls: Fraction of zone or space controlled by the Daylighting reference points is < 1.0.
   **   ~~~   ** ..discovered in Daylighting:Controls="BREAK_ROOM_32_DAYLIGHT", only 0.900 of the zone or space is controlled.
   ** Warning ** No Glare Calculation Daylighting Reference Point Name provided for object named: OFFICE_PRIVATE_33_DAYLIGHT
   **   ~~~   ** No glare calculation performed, and the simulation continues.
   ** Warning ** GetDaylightingControls: Fraction of zone or space controlled by the Daylighting reference points is < 1.0.
   **   ~~~   ** ..discovered in Daylighting:Controls="OFFICE_PRIVATE_33_DAYLIGHT", only 0.900 of the zone or space is controlled.
   ** Warning ** No Glare Calculation Daylighting Reference Point Name provided for object named: OFFICE_PRIVATE_34_DAYLIGHT
   **   ~~~   ** No glare calculation performed, and the simulation continues.
   ** Warning ** GetDaylightingControls: Fraction of zone or space controlled by the Daylighting reference points is < 1.0.
   **   ~~~   ** ..discovered in Daylighting:Controls="OFFICE_PRIVATE_34_DAYLIGHT", only 0.900 of the zone or space is controlled.
   ** Warning ** No Glare Calculation Daylighting Reference Point Name provided for object named: CONFERENCE_36_DAYLIGHT
   **   ~~~   ** No glare calculation performed, and the simulation continues.
   ** Warning ** GetDaylightingControls: Fraction of zone or space controlled by the Daylighting reference points is < 1.0.
   **   ~~~   ** ..discovered in Daylighting:Controls="CONFERENCE_36_DAYLIGHT", only 0.900 of the zone or space is controlled.
   ** Warning ** No Glare Calculation Daylighting Reference Point Name provided for object named: OFFICE_PRIVATE_36_DAYLIGHT
   **   ~~~   ** No glare calculation performed, and the simulation continues.
   ** Warning ** GetDaylightingControls: Fraction of zone or space controlled by the Daylighting reference points is < 1.0.
   **   ~~~   ** ..discovered in Daylighting:Controls="OFFICE_PRIVATE_36_DAYLIGHT", only 0.900 of the zone or space is controlled.
   ** Warning ** No Glare Calculation Daylighting Reference Point Name provided for object named: OFFICE_PRIVATE_37_DAYLIGHT
   **   ~~~   ** No glare calculation performed, and the simulation continues.
   ** Warning ** GetDaylightingControls: Fraction of zone or space controlled by the Daylighting reference points is < 1.0.
   **   ~~~   ** ..discovered in Daylighting:Controls="OFFICE_PRIVATE_37_DAYLIGHT", only 0.900 of the zone or space is controlled.
   ** Warning ** No Glare Calculation Daylighting Reference Point Name provided for object named: CONFERENCE_39_DAYLIGHT
   **   ~~~   ** No glare calculation performed, and the simulation continues.
   ** Warning ** GetDaylightingControls: Fraction of zone or space controlled by the Daylighting reference points is < 1.0.
   **   ~~~   ** ..discovered in Daylighting:Controls="CONFERENCE_39_DAYLIGHT", only 0.900 of the zone or space is controlled.
   ** Warning ** No Glare Calculation Daylighting Reference Point Name provided for object named: BREAK_ROOM_40_DAYLIGHT
   **   ~~~   ** No glare calculation performed, and the simulation continues.
   ** Warning ** GetDaylightingControls: Fraction of zone or space controlled by the Daylighting reference points is < 1.0.
   **   ~~~   ** ..discovered in Daylighting:Controls="BREAK_ROOM_40_DAYLIGHT", only 0.900 of the zone or space is controlled.
   ** Warning ** No Glare Calculation Daylighting Reference Point Name provided for object named: OFFICE_PRIVATE_41_DAYLIGHT
   **   ~~~   ** No glare calculation performed, and the simulation continues.
   ** Warning ** GetDaylightingControls: Fraction of zone or space controlled by the Daylighting reference points is < 1.0.
   **   ~~~   ** ..discovered in Daylighting:Controls="OFFICE_PRIVATE_41_DAYLIGHT", only 0.900 of the zone or space is controlled.
   ** Warning ** No Glare Calculation Daylighting Reference Point Name provided for object named: BREAK_ROOM_42_DAYLIGHT
   **   ~~~   ** No glare calculation performed, and the simulation continues.
   ** Warning ** GetDaylightingControls: Fraction of zone or space controlled by the Daylighting reference points is < 1.0.
   **   ~~~   ** ..discovered in Daylighting:Controls="BREAK_ROOM_42_DAYLIGHT", only 0.900 of the zone or space is controlled.
   ** Warning ** No Glare Calculation Daylighting Reference Point Name provided for object named: LOBBY_43_DAYLIGHT
   **   ~~~   ** No glare calculation performed, and the simulation continues.
   ** Warning ** GetDaylightingControls: Fraction of zone or space controlled by the Daylighting reference points is < 1.0.
   **   ~~~   ** ..discovered in Daylighting:Controls="LOBBY_43_DAYLIGHT", only 0.900 of the zone or space is controlled.
   ** Warning ** No Glare Calculation Daylighting Reference Point Name provided for object named: BREAK_ROOM_44_DAYLIGHT
   **   ~~~   ** No glare calculation performed, and the simulation continues.
   ** Warning ** GetDaylightingControls: Fraction of zone or space controlled by the Daylighting reference points is < 1.0.
   **   ~~~   ** ..discovered in Daylighting:Controls="BREAK_ROOM_44_DAYLIGHT", only 0.900 of the zone or space is controlled.
   ** Warning ** No Glare Calculation Daylighting Reference Point Name provided for object named: OFFICE_PRIVATE_44_DAYLIGHT
   **   ~~~   ** No glare calculation performed, and the simulation continues.
   ** Warning ** GetDaylightingControls: Fraction of zone or space controlled by the Daylighting reference points is < 1.0.
   **   ~~~   ** ..discovered in Daylighting:Controls="OFFICE_PRIVATE_44_DAYLIGHT", only 0.900 of the zone or space is controlled.
   ** Warning ** No Glare Calculation Daylighting Reference Point Name provided for object named: CONFERENCE_45_DAYLIGHT
   **   ~~~   ** No glare calculation performed, and the simulation continues.
   ** Warning ** GetDaylightingControls: Fraction of zone or space controlled by the Daylighting reference points is < 1.0.
   **   ~~~   ** ..discovered in Daylighting:Controls="CONFERENCE_45_DAYLIGHT", only 0.900 of the zone or space is controlled.
   ** Warning ** No Glare Calculation Daylighting Reference Point Name provided for object named: OFFICE_PRIVATE_45_DAYLIGHT
   **   ~~~   ** No glare calculation performed, and the simulation continues.
   ** Warning ** GetDaylightingControls: Fraction of zone or space controlled by the Daylighting reference points is < 1.0.
   **   ~~~   ** ..discovered in Daylighting:Controls="OFFICE_PRIVATE_45_DAYLIGHT", only 0.900 of the zone or space is controlled.
   ** Warning ** No Glare Calculation Daylighting Reference Point Name provided for object named: BREAK_ROOM_46_DAYLIGHT
   **   ~~~   ** No glare calculation performed, and the simulation continues.
   ** Warning ** GetDaylightingControls: Fraction of zone or space controlled by the Daylighting reference points is < 1.0.
   **   ~~~   ** ..discovered in Daylighting:Controls="BREAK_ROOM_46_DAYLIGHT", only 0.900 of the zone or space is controlled.
   ** Warning ** No Glare Calculation Daylighting Reference Point Name provided for object named: OFFICE_PRIVATE_47_DAYLIGHT
   **   ~~~   ** No glare calculation performed, and the simulation continues.
   ** Warning ** GetDaylightingControls: Fraction of zone or space controlled by the Daylighting reference points is < 1.0.
   **   ~~~   ** ..discovered in Daylighting:Controls="OFFICE_PRIVATE_47_DAYLIGHT", only 0.900 of the zone or space is controlled.
   ** Warning ** No Glare Calculation Daylighting Reference Point Name provided for object named: BREAK_ROOM_48_DAYLIGHT
   **   ~~~   ** No glare calculation performed, and the simulation continues.
   ** Warning ** GetDaylightingControls: Fraction of zone or space controlled by the Daylighting reference points is < 1.0.
   **   ~~~   ** ..discovered in Daylighting:Controls="BREAK_ROOM_48_DAYLIGHT", only 0.900 of the zone or space is controlled.
   ** Warning ** No Glare Calculation Daylighting Reference Point Name provided for object named: LOBBY_51_DAYLIGHT
   **   ~~~   ** No glare calculation performed, and the simulation continues.
   ** Warning ** GetDaylightingControls: Fraction of zone or space controlled by the Daylighting reference points is < 1.0.
   **   ~~~   ** ..discovered in Daylighting:Controls="LOBBY_51_DAYLIGHT", only 0.900 of the zone or space is controlled.
   ** Warning ** No Glare Calculation Daylighting Reference Point Name provided for object named: CONFERENCE_51_DAYLIGHT
   **   ~~~   ** No glare calculation performed, and the simulation continues.
   ** Warning ** GetDaylightingControls: Fraction of zone or space controlled by the Daylighting reference points is < 1.0.
   **   ~~~   ** ..discovered in Daylighting:Controls="CONFERENCE_51_DAYLIGHT", only 0.900 of the zone or space is controlled.
   ** Warning ** No Glare Calculation Daylighting Reference Point Name provided for object named: OFFICE_PRIVATE_51_DAYLIGHT
   **   ~~~   ** No glare calculation performed, and the simulation continues.
   ** Warning ** GetDaylightingControls: Fraction of zone or space controlled by the Daylighting reference points is < 1.0.
   **   ~~~   ** ..discovered in Daylighting:Controls="OFFICE_PRIVATE_51_DAYLIGHT", only 0.900 of the zone or space is controlled.
   ** Warning ** No Glare Calculation Daylighting Reference Point Name provided for object named: OFFICE_PRIVATE_52_DAYLIGHT
   **   ~~~   ** No glare calculation performed, and the simulation continues.
   ** Warning ** GetDaylightingControls: Fraction of zone or space controlled by the Daylighting reference points is < 1.0.
   **   ~~~   ** ..discovered in Daylighting:Controls="OFFICE_PRIVATE_52_DAYLIGHT", only 0.900 of the zone or space is controlled.
   ** Warning ** No Glare Calculation Daylighting Reference Point Name provided for object named: LOBBY_54_DAYLIGHT
   **   ~~~   ** No glare calculation performed, and the simulation continues.
   ** Warning ** GetDaylightingControls: Fraction of zone or space controlled by the Daylighting reference points is < 1.0.
   **   ~~~   ** ..discovered in Daylighting:Controls="LOBBY_54_DAYLIGHT", only 0.900 of the zone or space is controlled.
   ** Warning ** No Glare Calculation Daylighting Reference Point Name provided for object named: BREAK_ROOM_54_DAYLIGHT
   **   ~~~   ** No glare calculation performed, and the simulation continues.
   ** Warning ** GetDaylightingControls: Fraction of zone or space controlled by the Daylighting reference points is < 1.0.
   **   ~~~   ** ..discovered in Daylighting:Controls="BREAK_ROOM_54_DAYLIGHT", only 0.900 of the zone or space is controlled.
   ** Warning ** No Glare Calculation Daylighting Reference Point Name provided for object named: OFFICE_OPEN_54_DAYLIGHT
   **   ~~~   ** No glare calculation performed, and the simulation continues.
   ** Warning ** GetDaylightingControls: Fraction of zone or space controlled by the Daylighting reference points is < 1.0.
   **   ~~~   ** ..discovered in Daylighting:Controls="OFFICE_OPEN_54_DAYLIGHT", only 0.900 of the zone or space is controlled.
   ** Warning ** GeometryTransformForDaylighting: Reference point X Value outside Zone Min/Max X, Zone=OFFICE_PRIVATE_0
   **   ~~~   ** ...X Reference Point= 2.00, Zone Minimum X= 16.50, Zone Maximum X= 22.86
   **   ~~~   ** ...X Reference Distance Outside MinimumX= 14.4951 m.
   ** Warning ** GeometryTransformForDaylighting: Reference point X Value outside Zone Min/Max X, Zone=LOBBY_1
   **   ~~~   ** ...X Reference Point= 2.00, Zone Minimum X= 13.87, Zone Maximum X= 22.00
   **   ~~~   ** ...X Reference Distance Outside MinimumX= 11.8697 m.
   ** Warning ** GeometryTransformForDaylighting: Reference point Z Value outside Zone Min/Max Z, Zone=LOBBY_1
   **   ~~~   ** ...Z Reference Point= 0.80, Zone Minimum Z= 3.00, Zone Maximum Z= 6.00
   **   ~~~   ** ...Z Reference Distance Outside MinimumZ= 2.2000 m.
   ** Warning ** GeometryTransformForDaylighting: Reference point X Value outside Zone Min/Max X, Zone=OFFICE_PRIVATE_1
   **   ~~~   ** ...X Reference Point= 2.00, Zone Minimum X= 11.43, Zone Maximum X= 15.41
   **   ~~~   ** ...X Reference Distance Outside MinimumX= 9.4325 m.
   ** Warning ** GeometryTransformForDaylighting: Reference point Z Value outside Zone Min/Max Z, Zone=OFFICE_PRIVATE_1
   **   ~~~   ** ...Z Reference Point= 0.80, Zone Minimum Z= 3.00, Zone Maximum Z= 6.00
   **   ~~~   ** ...Z Reference Distance Outside MinimumZ= 2.2000 m.
   ** Warning ** GeometryTransformForDaylighting: Reference point X Value outside Zone Min/Max X, Zone=BREAK_ROOM_2
   **   ~~~   ** ...X Reference Point= 2.00, Zone Minimum X= 15.20, Zone Maximum X= 20.33
   **   ~~~   ** ...X Reference Distance Outside MinimumX= 13.2031 m.
   ** Warning ** GeometryTransformForDaylighting: Reference point Z Value outside Zone Min/Max Z, Zone=BREAK_ROOM_2
   **   ~~~   ** ...Z Reference Point= 0.80, Zone Minimum Z= 6.00, Zone Maximum Z= 9.00
   **   ~~~   ** ...Z Reference Distance Outside MinimumZ= 5.2000 m.
   ** Warning ** GeometryTransformForDaylighting: Reference point X Value outside Zone Min/Max X, Zone=OFFICE_PRIVATE_2
   **   ~~~   ** ...X Reference Point= 2.00, Zone Minimum X= 17.89, Zone Maximum X= 23.67
   **   ~~~   ** ...X Reference Distance Outside MinimumX= 15.8906 m.
   ** Warning ** GeometryTransformForDaylighting: Reference point Z Value outside Zone Min/Max Z, Zone=OFFICE_PRIVATE_2
   **   ~~~   ** ...Z Reference Point= 0.80, Zone Minimum Z= 6.00, Zone Maximum Z= 9.00
   **   ~~~   ** ...Z Reference Distance Outside MinimumZ= 5.2000 m.
   ** Warning ** GeometryTransformForDaylighting: Reference point X Value outside Zone Min/Max X, Zone=OFFICE_PRIVATE_3
   **   ~~~   ** ...X Reference Point= 2.00, Zone Minimum X= 15.41, Zone Maximum X= 18.65
   **   ~~~   ** ...X Reference Distance Outside MinimumX= 13.4139 m.
   ** Warning ** GeometryTransformForDaylighting: Reference point Z Value outside Zone Min/Max Z, Zone=OFFICE_PRIVATE_3
   **   ~~~   ** ...Z Reference Point= 0.80, Zone Minimum Z= 9.00, Zone Maximum Z= 12.00
   **   ~~~   ** ...Z Reference Distance Outside MinimumZ= 8.2000 m.
   ** Warning ** GeometryTransformForDaylighting: Reference point X Value outside Zone Min/Max X, Zone=OFFICE_PRIVATE_4
   **   ~~~   ** ...X Reference Point= 2.00, Zone Minimum X= 17.32, Zone Maximum X= 22.19
   **   ~~~   ** ...X Reference Distance Outside MinimumX= 15.3216 m.
   ** Warning ** GeometryTransformForDaylighting: Reference point Z Value outside Zone Min/Max Z, Zone=OFFICE_PRIVATE_4
   **   ~~~   ** ...Z Reference Point= 0.80, Zone Minimum Z= 12.00, Zone Maximum Z= 15.00
   **   ~~~   ** ...Z Reference Distance Outside MinimumZ= 11.2000 m.
   ** Warning ** GeometryTransformForDaylighting: Reference point X Value outside Zone Min/Max X, Zone=BREAK_ROOM_6
   **   ~~~   ** ...X Reference Point= 2.00, Zone Minimum X= 9.66, Zone Maximum X= 16.44
   **   ~~~   ** ...X Reference Distance Outside MinimumX= 7.6559 m.
   ** Warning ** GeometryTransformForDaylighting: Reference point Z Value outside Zone Min/Max Z, Zone=BREAK_ROOM_6
   **   ~~~   ** ...Z Reference Point= 0.80, Zone Minimum Z= 18.00, Zone Maximum Z= 21.00
   **   ~~~   ** ...Z Reference Distance Outside MinimumZ= 17.2000 m.
   ** Warning ** GeometryTransformForDaylighting: Reference point X Value outside Zone Min/Max X, Zone=BREAK_ROOM_8
   **   ~~~   ** ...X Reference Point= 2.00, Zone Minimum X= 14.46, Zone Maximum X= 20.48
   **   ~~~   ** ...X Reference Distance Outside MinimumX= 12.4608 m.
   ** Warning ** GeometryTransformForDaylighting: Reference point Z Value outside Zone Min/Max Z, Zone=BREAK_ROOM_8
   **   ~~~   ** ...Z Reference Point= 0.80, Zone Minimum Z= 24.00, Zone Maximum Z= 27.00
   **   ~~~   ** ...Z Reference Distance Outside MinimumZ= 23.2000 m.
   ** Warning ** GeometryTransformForDaylighting: Reference point X Value outside Zone Min/Max X, Zone=BREAK_ROOM_11
   **   ~~~   ** ...X Reference Point= 2.00, Zone Minimum X= 5.43, Zone Maximum X= 11.33
   **   ~~~   ** ...X Reference Distance Outside MinimumX= 3.4295 m.
   ** Warning ** GeometryTransformForDaylighting: Reference point Z Value outside Zone Min/Max Z, Zone=BREAK_ROOM_11
   **   ~~~   ** ...Z Reference Point= 0.80, Zone Minimum Z= 33.00, Zone Maximum Z= 36.00
   **   ~~~   ** ...Z Reference Distance Outside MinimumZ= 32.2000 m.
   ** Warning ** GeometryTransformForDaylighting: Reference point X Value outside Zone Min/Max X, Zone=CONFERENCE_13
   **   ~~~   ** ...X Reference Point= 2.00, Zone Minimum X= 10.98, Zone Maximum X= 17.04
   **   ~~~   ** ...X Reference Distance Outside MinimumX= 8.9816 m.
   ** Warning ** GeometryTransformForDaylighting: Reference point Z Value outside Zone Min/Max Z, Zone=CONFERENCE_13
   **   ~~~   ** ...Z Reference Point= 0.80, Zone Minimum Z= 39.00, Zone Maximum Z= 42.00
   **   ~~~   ** ...Z Reference Distance Outside MinimumZ= 38.2000 m.
   ** Warning ** GeometryTransformForDaylighting: Reference point X Value outside Zone Min/Max X, Zone=LOBBY_14
   **   ~~~   ** ...X Reference Point= 2.00, Zone Minimum X= 7.00, Zone Maximum X= 15.22
   **   ~~~   ** ...X Reference Distance Outside MinimumX= 5.0024 m.
   ** Warning ** GeometryTransformForDaylighting: Reference point Z Value outside Zone Min/Max Z, Zone=LOBBY_14
   **   ~~~   ** ...Z Reference Point= 0.80, Zone Minimum Z= 42.00, Zone Maximum Z= 45.00
   **   ~~~   ** ...Z Reference Distance Outside MinimumZ= 41.2000 m.
   ** Warning ** GeometryTransformForDaylighting: Reference point X Value outside Zone Min/Max X, Zone=CONFERENCE_14
   **   ~~~   ** ...X Reference Point= 2.00, Zone Minimum X= 9.38, Zone Maximum X= 15.64
   **   ~~~   ** ...X Reference Distance Outside MinimumX= 7.3849 m.
   ** Warning ** GeometryTransformForDaylighting: Reference point Z Value outside Zone Min/Max Z, Zone=CONFERENCE_14
   **   ~~~   ** ...Z Reference Point= 0.80, Zone Minimum Z= 42.00, Zone Maximum Z= 45.00
   **   ~~~   ** ...Z Reference Distance Outside MinimumZ= 41.2000 m.
   ** Warning ** GeometryTransformForDaylighting: Reference point X Value outside Zone Min/Max X, Zone=BREAK_ROOM_14
   **   ~~~   ** ...X Reference Point= 2.00, Zone Minimum X= 13.25, Zone Maximum X= 19.31
   **   ~~~   ** ...X Reference Distance Outside MinimumX= 11.2460 m.
   ** Warning ** GeometryTransformForDaylighting: Reference point Z Value outside Zone Min/Max Z, Zone=BREAK_ROOM_14
   **   ~~~   ** ...Z Reference Point= 0.80, Zone Minimum Z= 42.00, Zone Maximum Z= 45.00
   **   ~~~   ** ...Z Reference Distance Outside MinimumZ= 41.2000 m.
   ** Warning ** GeometryTransformForDaylighting: Reference point X Value outside Zone Min/Max X, Zone=CONFERENCE_15
   **   ~~~   ** ...X Reference Point= 2.00, Zone Minimum X= 4.46, Zone Maximum X= 9.63
   **   ~~~   ** ...X Reference Distance Outside MinimumX= 2.4578 m.
   ** Warning ** GeometryTransformForDaylighting: Reference point Y Value outside Zone Min/Max Y, Zone=CONFERENCE_15
   **   ~~~   ** ...Y Reference Point= 2.00, Zone Minimum Y= 2.04, Zone Maximum Y= 8.39
   **   ~~~   ** ...Y Reference Distance Outside MinimumY= 4.4500E-002 m.
   ** Warning ** GeometryTransformForDaylighting: Reference point Z Value outside Zone Min/Max Z, Zone=CONFERENCE_15
   **   ~~~   ** ...Z Reference Point= 0.80, Zone Minimum Z= 45.00, Zone Maximum Z= 48.00
   **   ~~~   ** ...Z Reference Distance Outside MinimumZ= 44.2000 m.
   ** Warning ** GeometryTransformForDaylighting: Reference point X Value outside Zone Min/Max X, Zone=BREAK_ROOM_16
   **   ~~~   ** ...X Reference Point= 2.00, Zone Minimum X= 7.52, Zone Maximum X= 14.04
   **   ~~~   ** ...X Reference Distance Outside MinimumX= 5.5205 m.
   ** Warning ** GeometryTransformForDaylighting: Reference point Y Value outside Zone Min/Max Y, Zone=BREAK_ROOM_16
   **   ~~~   ** ...Y Reference Point= 2.00, Zone Minimum Y= -8.69, Zone Maximum Y= 1.22
   **   ~~~   ** ...Y Reference Distance Outside MinimumY= 0.7759 m.
   ** Warning ** GeometryTransformForDaylighting: Reference point Z Value outside Zone Min/Max Z, Zone=BREAK_ROOM_16
   **   ~~~   ** ...Z Reference Point= 0.80, Zone Minimum Z= 48.00, Zone Maximum Z= 51.00
   **   ~~~   ** ...Z Reference Distance Outside MinimumZ= 47.2000 m.
   ** Warning ** GeometryTransformForDaylighting: Reference point X Value outside Zone Min/Max X, Zone=OFFICE_OPEN_16
   **   ~~~   ** ...X Reference Point= 2.00, Zone Minimum X= 4.68, Zone Maximum X= 13.72
   **   ~~~   ** ...X Reference Distance Outside MinimumX= 2.6780 m.
   ** Warning ** GeometryTransformForDaylighting: Reference point Z Value outside Zone Min/Max Z, Zone=OFFICE_OPEN_16
   **   ~~~   ** ...Z Reference Point= 0.80, Zone Minimum Z= 48.00, Zone Maximum Z= 51.00
   **   ~~~   ** ...Z Reference Distance Outside MinimumZ= 47.2000 m.
   ** Warning ** GeometryTransformForDaylighting: Reference point X Value outside Zone Min/Max X, Zone=BREAK_ROOM_18
   **   ~~~   ** ...X Reference Point= 2.00, Zone Minimum X= 11.96, Zone Maximum X= 17.82
   **   ~~~   ** ...X Reference Distance Outside MinimumX= 9.9563 m.
   ** Warning ** GeometryTransformForDaylighting: Reference point Y Value outside Zone Min/Max Y, Zone=BREAK_ROOM_18
   **   ~~~   ** ...Y Reference Point= 2.00, Zone Minimum Y= 3.06, Zone Maximum Y= 10.00
   **   ~~~   ** ...Y Reference Distance Outside MinimumY= 1.0573 m.
   ** Warning ** GeometryTransformForDaylighting: Reference point Z Value outside Zone Min/Max Z, Zone=BREAK_ROOM_18
   **   ~~~   ** ...Z Reference Point= 0.80, Zone Minimum Z= 54.00, Zone Maximum Z= 57.00
   **   ~~~   ** ...Z Reference Distance Outside MinimumZ= 53.2000 m.
   ** Warning ** GeometryTransformForDaylighting: Reference point X Value outside Zone Min/Max X, Zone=OFFICE_PRIVATE_18
   **   ~~~   ** ...X Reference Point= 2.00, Zone Minimum X= 5.43, Zone Maximum X= 8.62
   **   ~~~   ** ...X Reference Distance Outside MinimumX= 3.4277 m.
   ** Warning ** GeometryTransformForDaylighting: Reference point Z Value outside Zone Min/Max Z, Zone=OFFICE_PRIVATE_18
   **   ~~~   ** ...Z Reference Point= 0.80, Zone Minimum Z= 54.00, Zone Maximum Z= 57.00
   **   ~~~   ** ...Z Reference Distance Outside MinimumZ= 53.2000 m.
   ** Warning ** GeometryTransformForDaylighting: Reference point X Value outside Zone Min/Max X, Zone=CONFERENCE_19
   **   ~~~   ** ...X Reference Point= 2.00, Zone Minimum X= 8.40, Zone Maximum X= 16.77
   **   ~~~   ** ...X Reference Distance Outside MinimumX= 6.3986 m.
   ** Warning ** GeometryTransformForDaylighting: Reference point Z Value outside Zone Min/Max Z, Zone=CONFERENCE_19
   **   ~~~   ** ...Z Reference Point= 0.80, Zone Minimum Z= 57.00, Zone Maximum Z= 60.00
   **   ~~~   ** ...Z Reference Distance Outside MinimumZ= 56.2000 m.
   ** Warning ** GeometryTransformForDaylighting: Reference point X Value outside Zone Min/Max X, Zone=OFFICE_PRIVATE_19
   **   ~~~   ** ...X Reference Point= 2.00, Zone Minimum X= 10.86, Zone Maximum X= 15.74
   **   ~~~   ** ...X Reference Distance Outside MinimumX= 8.8599 m.
   ** Warning ** GeometryTransformForDaylighting: Reference point Y Value outside Zone Min/Max Y, Zone=OFFICE_PRIVATE_19
   **   ~~~   ** ...Y Reference Point= 2.00, Zone Minimum Y= -10.54, Zone Maximum Y= -1.12
   **   ~~~   ** ...Y Reference Distance Outside MinimumY= 3.1221 m.
   ** Warning ** GeometryTransformForDaylighting: Reference point Z Value outside Zone Min/Max Z, Zone=OFFICE_PRIVATE_19
   **   ~~~   ** ...Z Reference Point= 0.80, Zone Minimum Z= 57.00, Zone Maximum Z= 60.00
   **   ~~~   ** ...Z Reference Distance Outside MinimumZ= 56.2000 m.
   ** Warning ** GeometryTransformForDaylighting: Reference point X Value outside Zone Min/Max X, Zone=BREAK_ROOM_25
   **   ~~~   ** ...X Reference Point= 2.00, Zone Minimum X= 17.02, Zone Maximum X= 21.46
   **   ~~~   ** ...X Reference Distance Outside MinimumX= 15.0215 m.
   ** Warning ** GeometryTransformForDaylighting: Reference point Z Value outside Zone Min/Max Z, Zone=BREAK_ROOM_25
   **   ~~~   ** ...Z Reference Point= 0.80, Zone Minimum Z= 75.00, Zone Maximum Z= 78.00
   **   ~~~   ** ...Z Reference Distance Outside MinimumZ= 74.2000 m.
   ** Warning ** GeometryTransformForDaylighting: Reference point X Value outside Zone Min/Max X, Zone=OFFICE_PRIVATE_25
   **   ~~~   ** ...X Reference Point= 2.00, Zone Minimum X= 15.47, Zone Maximum X= 20.65
   **   ~~~   ** ...X Reference Distance Outside MinimumX= 13.4728 m.
   ** Warning ** GeometryTransformForDaylighting: Reference point Z Value outside Zone Min/Max Z, Zone=OFFICE_PRIVATE_25
   **   ~~~   ** ...Z Reference Point= 0.80, Zone Minimum Z= 75.00, Zone Maximum Z= 78.00
   **   ~~~   ** ...Z Reference Distance Outside MinimumZ= 74.2000 m.
   ** Warning ** GeometryTransformForDaylighting: Reference point X Value outside Zone Min/Max X, Zone=CONFERENCE_27
   **   ~~~   ** ...X Reference Point= 2.00, Zone Minimum X= 12.80, Zone Maximum X= 19.96
   **   ~~~   ** ...X Reference Distance Outside MinimumX= 10.8048 m.
   ** Warning ** GeometryTransformForDaylighting: Reference point Z Value outside Zone Min/Max Z, Zone=CONFERENCE_27
   **   ~~~   ** ...Z Reference Point= 0.80, Zone Minimum Z= 81.00, Zone Maximum Z= 84.00
   **   ~~~   ** ...Z Reference Distance Outside MinimumZ= 80.2000 m.
   ** Warning ** GeometryTransformForDaylighting: Reference point X Value outside Zone Min/Max X, Zone=BREAK_ROOM_27
   **   ~~~   ** ...X Reference Point= 2.00, Zone Minimum X= 12.18, Zone Maximum X= 17.01
   **   ~~~   ** ...X Reference Distance Outside MinimumX= 10.1776 m.
   ** Warning ** GeometryTransformForDaylighting: Reference point Y Value outside Zone Min/Max Y, Zone=BREAK_ROOM_27
   **   ~~~   ** ...Y Reference Point= 2.00, Zone Minimum Y= -6.62, Zone Maximum Y= -0.41
   **   ~~~   ** ...Y Reference Distance Outside MinimumY= 2.4134 m.
   ** Warning ** GeometryTransformForDaylighting: Reference point Z Value outside Zone Min/Max Z, Zone=BREAK_ROOM_27
   **   ~~~   ** ...Z Reference Point= 0.80, Zone Minimum Z= 81.00, Zone Maximum Z= 84.00
   **   ~~~   ** ...Z Reference Distance Outside MinimumZ= 80.2000 m.
   ** Warning ** GeometryTransformForDaylighting: Reference point X Value outside Zone Min/Max X, Zone=OFFICE_PRIVATE_28
   **   ~~~   ** ...X Reference Point= 2.00, Zone Minimum X= 10.31, Zone Maximum X= 15.23
   **   ~~~   ** ...X Reference Distance Outside MinimumX= 8.3077 m.
   ** Warning ** GeometryTransformForDaylighting: Reference point Z Value outside Zone Min/Max Z, Zone=OFFICE_PRIVATE_28
   **   ~~~   ** ...Z Reference Point= 0.80, Zone Minimum Z= 84.00, Zone Maximum Z= 87.00
   **   ~~~   ** ...Z Reference Distance Outside MinimumZ= 83.2000 m.
   ** Warning ** GeometryTransformForDaylighting: Reference point X Value outside Zone Min/Max X, Zone=BREAK_ROOM_29
   **   ~~~   ** ...X Reference Point= 2.00, Zone Minimum X= 9.68, Zone Maximum X= 16.98
   **   ~~~   ** ...X Reference Distance Outside MinimumX= 7.6760 m.
   ** Warning ** GeometryTransformForDaylighting: Reference point Z Value outside Zone Min/Max Z, Zone=BREAK_ROOM_29
   **   ~~~   ** ...Z Reference Point= 0.80, Zone Minimum Z= 87.00, Zone Maximum Z= 90.00
   **   ~~~   ** ...Z Reference Distance Outside MinimumZ= 86.2000 m.
   ** Warning ** GeometryTransformForDaylighting: Reference point X Value outside Zone Min/Max X, Zone=CONFERENCE_30
   **   ~~~   ** ...X Reference Point= 2.00, Zone Minimum X= 6.82, Zone Maximum X= 15.36
   **   ~~~   ** ...X Reference Distance Outside MinimumX= 4.8247 m.
   ** Warning ** GeometryTransformForDaylighting: Reference point Z Value outside Zone Min/Max Z, Zone=CONFERENCE_30
   **   ~~~   ** ...Z Reference Point= 0.80, Zone Minimum Z= 90.00, Zone Maximum Z= 93.00
   **   ~~~   ** ...Z Reference Distance Outside MinimumZ= 89.2000 m.
   ** Warning ** GeometryTransformForDaylighting: Reference point X Value outside Zone Min/Max X, Zone=BREAK_ROOM_32
   **   ~~~   ** ...X Reference Point= 2.00, Zone Minimum X= 11.69, Zone Maximum X= 16.72
   **   ~~~   ** ...X Reference Distance Outside MinimumX= 9.6946 m.
   ** Warning ** GeometryTransformForDaylighting: Reference point Z Value outside Zone Min/Max Z, Zone=BREAK_ROOM_32
   **   ~~~   ** ...Z Reference Point= 0.80, Zone Minimum Z= 96.00, Zone Maximum Z= 99.00
   **   ~~~   ** ...Z Reference Distance Outside MinimumZ= 95.2000 m.
   ** Warning ** GeometryTransformForDaylighting: Reference point X Value outside Zone Min/Max X, Zone=OFFICE_PRIVATE_33
   **   ~~~   ** ...X Reference Point= 2.00, Zone Minimum X= 10.47, Zone Maximum X= 15.88
   **   ~~~   ** ...X Reference Distance Outside MinimumX= 8.4668 m.
   ** Warning ** GeometryTransformForDaylighting: Reference point Z Value outside Zone Min/Max Z, Zone=OFFICE_PRIVATE_33
   **   ~~~   ** ...Z Reference Point= 0.80, Zone Minimum Z= 99.00, Zone Maximum Z= 102.00
   **   ~~~   ** ...Z Reference Distance Outside MinimumZ= 98.2000 m.
   ** Warning ** GeometryTransformForDaylighting: Reference point X Value outside Zone Min/Max X, Zone=OFFICE_PRIVATE_34
   **   ~~~   ** ...X Reference Point= 2.00, Zone Minimum X= 16.50, Zone Maximum X= 21.03
   **   ~~~   ** ...X Reference Distance Outside MinimumX= 14.4988 m.
   ** Warning ** GeometryTransformForDaylighting: Reference point Z Value outside Zone Min/Max Z, Zone=OFFICE_PRIVATE_34
   **   ~~~   ** ...Z Reference Point= 0.80, Zone Minimum Z= 102.00, Zone Maximum Z= 105.00
   **   ~~~   ** ...Z Reference Distance Outside MinimumZ= 101.2000 m.
   ** Warning ** GeometryTransformForDaylighting: Reference point X Value outside Zone Min/Max X, Zone=CONFERENCE_36
   **   ~~~   ** ...X Reference Point= 2.00, Zone Minimum X= 10.82, Zone Maximum X= 16.43
   **   ~~~   ** ...X Reference Distance Outside MinimumX= 8.8193 m.
   ** Warning ** GeometryTransformForDaylighting: Reference point Z Value outside Zone Min/Max Z, Zone=CONFERENCE_36
   **   ~~~   ** ...Z Reference Point= 0.80, Zone Minimum Z= 108.00, Zone Maximum Z= 111.00
   **   ~~~   ** ...Z Reference Distance Outside MinimumZ= 107.2000 m.
   ** Warning ** GeometryTransformForDaylighting: Reference point X Value outside Zone Min/Max X, Zone=OFFICE_PRIVATE_36
   **   ~~~   ** ...X Reference Point= 2.00, Zone Minimum X= 17.40, Zone Maximum X= 21.42
   **   ~~~   ** ...X Reference Distance Outside MinimumX= 15.4008 m.
   ** Warning ** GeometryTransformForDaylighting: Reference point Y Value outside Zone Min/Max Y, Zone=OFFICE_PRIVATE_36
   **   ~~~   ** ...Y Reference Point= 2.00, Zone Minimum Y= -4.98, Zone Maximum Y= 1.65
   **   ~~~   ** ...Y Reference Distance Outside MinimumY= 0.3515 m.
   ** Warning ** GeometryTransformForDaylighting: Reference point Z Value outside Zone Min/Max Z, Zone=OFFICE_PRIVATE_36
   **   ~~~   ** ...Z Reference Point= 0.80, Zone Minimum Z= 108.00, Zone Maximum Z= 111.00
   **   ~~~   ** ...Z Reference Distance Outside MinimumZ= 107.2000 m.
   ** Warning ** GeometryTransformForDaylighting: Reference point X Value outside Zone Min/Max X, Zone=OFFICE_PRIVATE_37
   **   ~~~   ** ...X Reference Point= 2.00, Zone Minimum X= 11.08, Zone Maximum X= 14.28
   **   ~~~   ** ...X Reference Distance Outside MinimumX= 9.0807 m.
   ** Warning ** GeometryTransformForDaylighting: Reference point Y Value outside Zone Min/Max Y, Zone=OFFICE_PRIVATE_37
   **   ~~~   ** ...Y Reference Point= 2.00, Zone Minimum Y= 3.86, Zone Maximum Y= 9.02
   **   ~~~   ** ...Y Reference Distance Outside MinimumY= 1.8566 m.
   ** Warning ** GeometryTransformForDaylighting: Reference point Z Value outside Zone Min/Max Z, Zone=OFFICE_PRIVATE_37
   **   ~~~   ** ...Z Reference Point= 0.80, Zone Minimum Z= 111.00, Zone Maximum Z= 114.00
   **   ~~~   ** ...Z Reference Distance Outside MinimumZ= 110.2000 m.
   ** Warning ** GeometryTransformForDaylighting: Reference point X Value outside Zone Min/Max X, Zone=CONFERENCE_39
   **   ~~~   ** ...X Reference Point= 2.00, Zone Minimum X= 14.62, Zone Maximum X= 20.72
   **   ~~~   ** ...X Reference Distance Outside MinimumX= 12.6204 m.
   ** Warning ** GeometryTransformForDaylighting: Reference point Z Value outside Zone Min/Max Z, Zone=CONFERENCE_39
   **   ~~~   ** ...Z Reference Point= 0.80, Zone Minimum Z= 117.00, Zone Maximum Z= 120.00
   **   ~~~   ** ...Z Reference Distance Outside MinimumZ= 116.2000 m.
   ** Warning ** GeometryTransformForDaylighting: Reference point X Value outside Zone Min/Max X, Zone=BREAK_ROOM_40
   **   ~~~   ** ...X Reference Point= 2.00, Zone Minimum X= 18.86, Zone Maximum X= 24.89
   **   ~~~   ** ...X Reference Distance Outside MinimumX= 16.8640 m.
   ** Warning ** GeometryTransformForDaylighting: Reference point Z Value outside Zone Min/Max Z, Zone=BREAK_ROOM_40
   **   ~~~   ** ...Z Reference Point= 0.80, Zone Minimum Z= 120.00, Zone Maximum Z= 123.00
   **   ~~~   ** ...Z Reference Distance Outside MinimumZ= 119.2000 m.
   ** Warning ** GeometryTransformForDaylighting: Reference point X Value outside Zone Min/Max X, Zone=OFFICE_PRIVATE_41
   **   ~~~   ** ...X Reference Point= 2.00, Zone Minimum X= 17.23, Zone Maximum X= 22.40
   **   ~~~   ** ...X Reference Distance Outside MinimumX= 15.2341 m.
   ** Warning ** GeometryTransformForDaylighting: Reference point Z Value outside Zone Min/Max Z, Zone=OFFICE_PRIVATE_41
   **   ~~~   ** ...Z Reference Point= 0.80, Zone Minimum Z= 123.00, Zone Maximum Z= 126.00
   **   ~~~   ** ...Z Reference Distance Outside MinimumZ= 122.2000 m.
   ** Warning ** GeometryTransformForDaylighting: Reference point X Value outside Zone Min/Max X, Zone=BREAK_ROOM_42
   **   ~~~   ** ...X Reference Point= 2.00, Zone Minimum X= 18.71, Zone Maximum X= 25.13
   **   ~~~   ** ...X Reference Distance Outside MinimumX= 16.7116 m.
   ** Warning ** GeometryTransformForDaylighting: Reference point Z Value outside Zone Min/Max Z, Zone=BREAK_ROOM_42
   **   ~~~   ** ...Z Reference Point= 0.80, Zone Minimum Z= 126.00, Zone Maximum Z= 129.00
   **   ~~~   ** ...Z Reference Distance Outside MinimumZ= 125.2000 m.
   ** Warning ** GeometryTransformForDaylighting: Reference point X Value outside Zone Min/Max X, Zone=LOBBY_43
   **   ~~~   ** ...X Reference Point= 2.00, Zone Minimum X= 9.95, Zone Maximum X= 19.73
   **   ~~~   ** ...X Reference Distance Outside MinimumX= 7.9529 m.
   ** Warning ** GeometryTransformForDaylighting: Reference point Z Value outside Zone Min/Max Z, Zone=LOBBY_43
   **   ~~~   ** ...Z Reference Point= 0.80, Zone Minimum Z= 129.00, Zone Maximum Z= 132.00
   **   ~~~   ** ...Z Reference Distance Outside MinimumZ= 128.2000 m.
   ** Warning ** GeometryTransformForDaylighting: Reference point X Value outside Zone Min/Max X, Zone=BREAK_ROOM_44
   **   ~~~   ** ...X Reference Point= 2.00, Zone Minimum X= 9.59, Zone Maximum X= 13.57
   **   ~~~   ** ...X Reference Distance Outside MinimumX= 7.5865 m.
   ** Warning ** GeometryTransformForDaylighting: Reference point Y Value outside Zone Min/Max Y, Zone=BREAK_ROOM_44
   **   ~~~   ** ...Y Reference Point= 2.00, Zone Minimum Y= -10.13, Zone Maximum Y= -2.60
   **   ~~~   ** ...Y Reference Distance Outside MinimumY= 4.5989 m.
   ** Warning ** GeometryTransformForDaylighting: Reference point Z Value outside Zone Min/Max Z, Zone=BREAK_ROOM_44
   **   ~~~   ** ...Z Reference Point= 0.80, Zone Minimum Z= 132.00, Zone Maximum Z= 135.00
   **   ~~~   ** ...Z Reference Distance Outside MinimumZ= 131.2000 m.
   ** Warning ** GeometryTransformForDaylighting: Reference point X Value outside Zone Min/Max X, Zone=OFFICE_PRIVATE_44
   **   ~~~   ** ...X Reference Point= 2.00, Zone Minimum X= 13.44, Zone Maximum X= 16.63
   **   ~~~   ** ...X Reference Distance Outside MinimumX= 11.4442 m.
   ** Warning ** GeometryTransformForDaylighting: Reference point Y Value outside Zone Min/Max Y, Zone=OFFICE_PRIVATE_44
   **   ~~~   ** ...Y Reference Point= 2.00, Zone Minimum Y= 5.33, Zone Maximum Y= 10.32
   **   ~~~   ** ...Y Reference Distance Outside MinimumY= 3.3302 m.
   ** Warning ** GeometryTransformForDaylighting: Reference point Z Value outside Zone Min/Max Z, Zone=OFFICE_PRIVATE_44
   **   ~~~   ** ...Z Reference Point= 0.80, Zone Minimum Z= 132.00, Zone Maximum Z= 135.00
   **   ~~~   ** ...Z Reference Distance Outside MinimumZ= 131.2000 m.
   ** Warning ** GeometryTransformForDaylighting: Reference point X Value outside Zone Min/Max X, Zone=CONFERENCE_45
   **   ~~~   ** ...X Reference Point= 2.00, Zone Minimum X= 9.46, Zone Maximum X= 16.00
   **   ~~~   ** ...X Reference Distance Outside MinimumX= 7.4639 m.
   ** Warning ** GeometryTransformForDaylighting: Reference point Y Value outside Zone Min/Max Y, Zone=CONFERENCE_45
   **   ~~~   ** ...Y Reference Point= 2.00, Zone Minimum Y= -10.07, Zone Maximum Y= -3.14
   **   ~~~   ** ...Y Reference Distance Outside MinimumY= 5.1415 m.
   ** Warning ** GeometryTransformForDaylighting: Reference point Z Value outside Zone Min/Max Z, Zone=CONFERENCE_45
   **   ~~~   ** ...Z Reference Point= 0.80, Zone Minimum Z= 135.00, Zone Maximum Z= 138.00
   **   ~~~   ** ...Z Reference Distance Outside MinimumZ= 134.2000 m.
   ** Warning ** GeometryTransformForDaylighting: Reference point X Value outside Zone Min/Max X, Zone=OFFICE_PRIVATE_45
   **   ~~~   ** ...X Reference Point= 2.00, Zone Minimum X= 14.96, Zone Maximum X= 18.99
   **   ~~~   ** ...X Reference Distance Outside MinimumX= 12.9598 m.
   ** Warning ** GeometryTransformForDaylighting: Reference point Y Value outside Zone Min/Max Y, Zone=OFFICE_PRIVATE_45
   **   ~~~   ** ...Y Reference Point= 2.00, Zone Minimum Y= -5.53, Zone Maximum Y= -1.15
   **   ~~~   ** ...Y Reference Distance Outside MinimumY= 3.1498 m.
   ** Warning ** GeometryTransformForDaylighting: Reference point Z Value outside Zone Min/Max Z, Zone=OFFICE_PRIVATE_45
   **   ~~~   ** ...Z Reference Point= 0.80, Zone Minimum Z= 135.00, Zone Maximum Z= 138.00
   **   ~~~   ** ...Z Reference Distance Outside MinimumZ= 134.2000 m.
   ** Warning ** GeometryTransformForDaylighting: Reference point X Value outside Zone Min/Max X, Zone=BREAK_ROOM_46
   **   ~~~   ** ...X Reference Point= 2.00, Zone Minimum X= 10.72, Zone Maximum X= 17.56
   **   ~~~   ** ...X Reference Distance Outside MinimumX= 8.7224 m.
   ** Warning ** GeometryTransformForDaylighting: Reference point Z Value outside Zone Min/Max Z, Zone=BREAK_ROOM_46
   **   ~~~   ** ...Z Reference Point= 0.80, Zone Minimum Z= 138.00, Zone Maximum Z= 141.00
   **   ~~~   ** ...Z Reference Distance Outside MinimumZ= 137.2000 m.
   ** Warning ** GeometryTransformForDaylighting: Reference point X Value outside Zone Min/Max X, Zone=OFFICE_PRIVATE_47
   **   ~~~   ** ...X Reference Point= 2.00, Zone Minimum X= 20.46, Zone Maximum X= 24.74
   **   ~~~   ** ...X Reference Distance Outside MinimumX= 18.4567 m.
   ** Warning ** GeometryTransformForDaylighting: Reference point Z Value outside Zone Min/Max Z, Zone=OFFICE_PRIVATE_47
   **   ~~~   ** ...Z Reference Point= 0.80, Zone Minimum Z= 141.00, Zone Maximum Z= 144.00
   **   ~~~   ** ...Z Reference Distance Outside MinimumZ= 140.2000 m.
   ** Warning ** GeometryTransformForDaylighting: Reference point X Value outside Zone Min/Max X, Zone=BREAK_ROOM_48
   **   ~~~   ** ...X Reference Point= 2.00, Zone Minimum X= 6.60, Zone Maximum X= 10.27
   **   ~~~   ** ...X Reference Distance Outside MinimumX= 4.5977 m.
   ** Warning ** GeometryTransformForDaylighting: Reference point Z Value outside Zone Min/Max Z, Zone=BREAK_ROOM_48
   **   ~~~   ** ...Z Reference Point= 0.80, Zone Minimum Z= 144.00, Zone Maximum Z= 147.00
   **   ~~~   ** ...Z Reference Distance Outside MinimumZ= 143.2000 m.
   ** Warning ** GeometryTransformForDaylighting: Reference point X Value outside Zone Min/Max X, Zone=LOBBY_51
   **   ~~~   ** ...X Reference Point= 2.00, Zone Minimum X= 5.90, Zone Maximum X= 14.77
   **   ~~~   ** ...X Reference Distance Outside MinimumX= 3.8970 m.
   ** Warning ** GeometryTransformForDaylighting: Reference point Z Value outside Zone Min/Max Z, Zone=LOBBY_51
   **   ~~~   ** ...Z Reference Point= 0.80, Zone Minimum Z= 153.00, Zone Maximum Z= 156.00
   **   ~~~   ** ...Z Reference Distance Outside MinimumZ= 152.2000 m.
   ** Warning ** GeometryTransformForDaylighting: Reference point X Value outside Zone Min/Max X, Zone=CONFERENCE_51
   **   ~~~   ** ...X Reference Point= 2.00, Zone Minimum X= 7.76, Zone Maximum X= 16.32
   **   ~~~   ** ...X Reference Distance Outside MinimumX= 5.7604 m.
   ** Warning ** GeometryTransformForDaylighting: Reference point Z Value outside Zone Min/Max Z, Zone=CONFERENCE_51
   **   ~~~   ** ...Z Reference Point= 0.80, Zone Minimum Z= 153.00, Zone Maximum Z= 156.00
   **   ~~~   ** ...Z Reference Distance Outside MinimumZ= 152.2000 m.
   ** Warning ** GeometryTransformForDaylighting: Reference point X Value outside Zone Min/Max X, Zone=OFFICE_PRIVATE_51
   **   ~~~   ** ...X Reference Point= 2.00, Zone Minimum X= 4.69, Zone Maximum X= 9.02
   **   ~~~   ** ...X Reference Distance Outside MinimumX= 2.6884 m.
   ** Warning ** GeometryTransformForDaylighting: Reference point Z Value outside Zone Min/Max Z, Zone=OFFICE_PRIVATE_51
   **   ~~~   ** ...Z Reference Point= 0.80, Zone Minimum Z= 153.00, Zone Maximum Z= 156.00
   **   ~~~   ** ...Z Reference Distance Outside MinimumZ= 152.2000 m.
   ** Warning ** GeometryTransformForDaylighting: Reference point X Value outside Zone Min/Max X, Zone=OFFICE_PRIVATE_52
   **   ~~~   ** ...X Reference Point= 2.00, Zone Minimum X= 16.10, Zone Maximum X= 20.01
   **   ~~~   ** ...X Reference Distance Outside MinimumX= 14.1016 m.
   ** Warning ** GeometryTransformForDaylighting: Reference point Y Value outside Zone Min/Max Y, Zone=OFFICE_PRIVATE_52
   **   ~~~   ** ...Y Reference Point= 2.00, Zone Minimum Y= -6.45, Zone Maximum Y= -2.01
   **   ~~~   ** ...Y Reference Distance Outside MinimumY= 4.0088 m.
   ** Warning ** GeometryTransformForDaylighting: Reference point Z Value outside Zone Min/Max Z, Zone=OFFICE_PRIVATE_52
   **   ~~~   ** ...Z Reference Point= 0.80, Zone Minimum Z= 156.00, Zone Maximum Z= 159.00
   **   ~~~   ** ...Z Reference Distance Outside MinimumZ= 155.2000 m.
   ** Warning ** GeometryTransformForDaylighting: Reference point X Value outside Zone Min/Max X, Zone=LOBBY_54
   **   ~~~   ** ...X Reference Point= 2.00, Zone Minimum X= 8.29, Zone Maximum X= 17.23
   **   ~~~   ** ...X Reference Distance Outside MinimumX= 6.2924 m.
   ** Warning ** GeometryTransformForDaylighting: Reference point Z Value outside Zone Min/Max Z, Zone=LOBBY_54
   **   ~~~   ** ...Z Reference Point= 0.80, Zone Minimum Z= 162.00, Zone Maximum Z= 165.00
   **   ~~~   ** ...Z Reference Distance Outside MinimumZ= 161.2000 m.
   ** Warning ** GeometryTransformForDaylighting: Reference point X Value outside Zone Min/Max X, Zone=BREAK_ROOM_54
   **   ~~~   ** ...X Reference Point= 2.00, Zone Minimum X= 16.69, Zone Maximum X= 24.07
   **   ~~~   ** ...X Reference Distance Outside MinimumX= 14.6868 m.
   ** Warning ** GeometryTransformForDaylighting: Reference point Z Value outside Zone Min/Max Z, Zone=BREAK_ROOM_54
   **   ~~~   ** ...Z Reference Point= 0.80, Zone Minimum Z= 162.00, Zone Maximum Z= 165.00
   **   ~~~   ** ...Z Reference Distance Outside MinimumZ= 161.2000 m.
   ** Warning ** GeometryTransformForDaylighting: Reference point X Value outside Zone Min/Max X, Zone=OFFICE_OPEN_54
   **   ~~~   ** ...X Reference Point= 2.00, Zone Minimum X= 11.86, Zone Maximum X= 22.44
   **   ~~~   ** ...X Reference Distance Outside MinimumX= 9.8597 m.
   ** Warning ** GeometryTransformForDaylighting: Reference point Z Value outside Zone Min/Max Z, Zone=OFFICE_OPEN_54
   **   ~~~   ** ...Z Reference Point= 0.80, Zone Minimum Z= 162.00, Zone Maximum Z= 165.00
   **   ~~~   ** ...Z Reference Distance Outside MinimumZ= 161.2000 m.
   ** Warning ** Since Damper Heating Action = NORMAL, input for Maximum Flow per Zone Floor Area During Reheat will be ignored.
   **   ~~~   ** Occurs in AirTerminal:SingleDuct:VAV:Reheat = MECHANICAL_0_Z1_VAVTERMINAL
   ** Warning ** Since Damper Heating Action = NORMAL, input for Maximum Flow Fraction During Reheat will be ignored.
   **   ~~~   ** Occurs in AirTerminal:SingleDuct:VAV:Reheat = MECHANICAL_0_Z1_VAVTERMINAL
   ** Warning ** Since Damper Heating Action = NORMAL, input for Maximum Flow per Zone Floor Area During Reheat will be ignored.
   **   ~~~   ** Occurs in AirTerminal:SingleDuct:VAV:Reheat = OFFICE_PRIVATE_0_Z2_VAVTERMINAL
   ** Warning ** Since Damper Heating Action = NORMAL, input for Maximum Flow Fraction During Reheat will be ignored.
   **   ~~~   ** Occurs in AirTerminal:SingleDuct:VAV:Reheat = OFFICE_PRIVATE_0_Z2_VAVTERMINAL
   ** Warning ** Since Damper Heating Action = NORMAL, input for Maximum Flow per Zone Floor Area During Reheat will be ignored.
   **   ~~~   ** Occurs in AirTerminal:SingleDuct:VAV:Reheat = LOBBY_1_Z3_VAVTERMINAL
   ** Warning ** Since Damper Heating Action = NORMAL, input for Maximum Flow Fraction During Reheat will be ignored.
   **   ~~~   ** Occurs in AirTerminal:SingleDuct:VAV:Reheat = LOBBY_1_Z3_VAVTERMINAL
   ** Warning ** Since Damper Heating Action = NORMAL, input for Maximum Flow per Zone Floor Area During Reheat will be ignored.
   **   ~~~   ** Occurs in AirTerminal:SingleDuct:VAV:Reheat = OFFICE_PRIVATE_1_Z4_VAVTERMINAL
   ** Warning ** Since Damper Heating Action = NORMAL, input for Maximum Flow Fraction During Reheat will be ignored.
   **   ~~~   ** Occurs in AirTerminal:SingleDuct:VAV:Reheat = OFFICE_PRIVATE_1_Z4_VAVTERMINAL
   ** Warning ** Since Damper Heating Action = NORMAL, input for Maximum Flow per Zone Floor Area During Reheat will be ignored.
   **   ~~~   ** Occurs in AirTerminal:SingleDuct:VAV:Reheat = BREAK_ROOM_2_Z5_VAVTERMINAL
   ** Warning ** Since Damper Heating Action = NORMAL, input for Maximum Flow Fraction During Reheat will be ignored.
   **   ~~~   ** Occurs in AirTerminal:SingleDuct:VAV:Reheat = BREAK_ROOM_2_Z5_VAVTERMINAL
   ** Warning ** Since Damper Heating Action = NORMAL, input for Maximum Flow per Zone Floor Area During Reheat will be ignored.
   **   ~~~   ** Occurs in AirTerminal:SingleDuct:VAV:Reheat = OFFICE_PRIVATE_2_Z6_VAVTERMINAL
   ** Warning ** Since Damper Heating Action = NORMAL, input for Maximum Flow Fraction During Reheat will be ignored.
   **   ~~~   ** Occurs in AirTerminal:SingleDuct:VAV:Reheat = OFFICE_PRIVATE_2_Z6_VAVTERMINAL
   ** Warning ** Since Damper Heating Action = NORMAL, input for Maximum Flow per Zone Floor Area During Reheat will be ignored.
   **   ~~~   ** Occurs in AirTerminal:SingleDuct:VAV:Reheat = STORAGE_2_Z7_VAVTERMINAL
   ** Warning ** Since Damper Heating Action = NORMAL, input for Maximum Flow Fraction During Reheat will be ignored.
   **   ~~~   ** Occurs in AirTerminal:SingleDuct:VAV:Reheat = STORAGE_2_Z7_VAVTERMINAL
   ** Warning ** Since Damper Heating Action = NORMAL, input for Maximum Flow per Zone Floor Area During Reheat will be ignored.
   **   ~~~   ** Occurs in AirTerminal:SingleDuct:VAV:Reheat = MECHANICAL_3_Z8_VAVTERMINAL
   ** Warning ** Since Damper Heating Action = NORMAL, input for Maximum Flow Fraction During Reheat will be ignored.
   **   ~~~   ** Occurs in AirTerminal:SingleDuct:VAV:Reheat = MECHANICAL_3_Z8_VAVTERMINAL
   ** Warning ** Since Damper Heating Action = NORMAL, input for Maximum Flow per Zone Floor Area During Reheat will be ignored.
   **   ~~~   ** Occurs in AirTerminal:SingleDuct:VAV:Reheat = OFFICE_PRIVATE_3_Z9_VAVTERMINAL
   ** Warning ** Since Damper Heating Action = NORMAL, input for Maximum Flow Fraction During Reheat will be ignored.
   **   ~~~   ** Occurs in AirTerminal:SingleDuct:VAV:Reheat = OFFICE_PRIVATE_3_Z9_VAVTERMINAL
   ** Warning ** Since Damper Heating Action = NORMAL, input for Maximum Flow per Zone Floor Area During Reheat will be ignored.
   **   ~~~   ** Occurs in AirTerminal:SingleDuct:VAV:Reheat = OFFICE_PRIVATE_4_Z10_VAVTERMINAL
   ** Warning ** Since Damper Heating Action = NORMAL, input for Maximum Flow Fraction During Reheat will be ignored.
   **   ~~~   ** Occurs in AirTerminal:SingleDuct:VAV:Reheat = OFFICE_PRIVATE_4_Z10_VAVTERMINAL
   ** Warning ** Since Damper Heating Action = NORMAL, input for Maximum Flow per Zone Floor Area During Reheat will be ignored.
   **   ~~~   ** Occurs in AirTerminal:SingleDuct:VAV:Reheat = STORAGE_4_Z11_VAVTERMINAL
   ** Warning ** Since Damper Heating Action = NORMAL, input for Maximum Flow Fraction During Reheat will be ignored.
   **   ~~~   ** Occurs in AirTerminal:SingleDuct:VAV:Reheat = STORAGE_4_Z11_VAVTERMINAL
   ** Warning ** Since Damper Heating Action = NORMAL, input for Maximum Flow per Zone Floor Area During Reheat will be ignored.
   **   ~~~   ** Occurs in AirTerminal:SingleDuct:VAV:Reheat = BREAK_ROOM_6_Z12_VAVTERMINAL
   ** Warning ** Since Damper Heating Action = NORMAL, input for Maximum Flow Fraction During Reheat will be ignored.
   **   ~~~   ** Occurs in AirTerminal:SingleDuct:VAV:Reheat = BREAK_ROOM_6_Z12_VAVTERMINAL
   ** Warning ** Since Damper Heating Action = NORMAL, input for Maximum Flow per Zone Floor Area During Reheat will be ignored.
   **   ~~~   ** Occurs in AirTerminal:SingleDuct:VAV:Reheat = BREAK_ROOM_8_Z13_VAVTERMINAL
   ** Warning ** Since Damper Heating Action = NORMAL, input for Maximum Flow Fraction During Reheat will be ignored.
   **   ~~~   ** Occurs in AirTerminal:SingleDuct:VAV:Reheat = BREAK_ROOM_8_Z13_VAVTERMINAL
   ** Warning ** Since Damper Heating Action = NORMAL, input for Maximum Flow per Zone Floor Area During Reheat will be ignored.
   **   ~~~   ** Occurs in AirTerminal:SingleDuct:VAV:Reheat = STORAGE_8_Z14_VAVTERMINAL
   ** Warning ** Since Damper Heating Action = NORMAL, input for Maximum Flow Fraction During Reheat will be ignored.
   **   ~~~   ** Occurs in AirTerminal:SingleDuct:VAV:Reheat = STORAGE_8_Z14_VAVTERMINAL
   ** Warning ** Since Damper Heating Action = NORMAL, input for Maximum Flow per Zone Floor Area During Reheat will be ignored.
   **   ~~~   ** Occurs in AirTerminal:SingleDuct:VAV:Reheat = BREAK_ROOM_11_Z15_VAVTERMINAL
   ** Warning ** Since Damper Heating Action = NORMAL, input for Maximum Flow Fraction During Reheat will be ignored.
   **   ~~~   ** Occurs in AirTerminal:SingleDuct:VAV:Reheat = BREAK_ROOM_11_Z15_VAVTERMINAL
   ** Warning ** Since Damper Heating Action = NORMAL, input for Maximum Flow per Zone Floor Area During Reheat will be ignored.
   **   ~~~   ** Occurs in AirTerminal:SingleDuct:VAV:Reheat = CONFERENCE_13_Z16_VAVTERMINAL
   ** Warning ** Since Damper Heating Action = NORMAL, input for Maximum Flow Fraction During Reheat will be ignored.
   **   ~~~   ** Occurs in AirTerminal:SingleDuct:VAV:Reheat = CONFERENCE_13_Z16_VAVTERMINAL
   ** Warning ** Since Damper Heating Action = NORMAL, input for Maximum Flow per Zone Floor Area During Reheat will be ignored.
   **   ~~~   ** Occurs in AirTerminal:SingleDuct:VAV:Reheat = STORAGE_13_Z17_VAVTERMINAL
   ** Warning ** Since Damper Heating Action = NORMAL, input for Maximum Flow Fraction During Reheat will be ignored.
   **   ~~~   ** Occurs in AirTerminal:SingleDuct:VAV:Reheat = STORAGE_13_Z17_VAVTERMINAL
   ** Warning ** Since Damper Heating Action = NORMAL, input for Maximum Flow per Zone Floor Area During Reheat will be ignored.
   **   ~~~   ** Occurs in AirTerminal:SingleDuct:VAV:Reheat = LOBBY_14_Z18_VAVTERMINAL
   ** Warning ** Since Damper Heating Action = NORMAL, input for Maximum Flow Fraction During Reheat will be ignored.
   **   ~~~   ** Occurs in AirTerminal:SingleDuct:VAV:Reheat = LOBBY_14_Z18_VAVTERMINAL
   ** Warning ** Since Damper Heating Action = NORMAL, input for Maximum Flow per Zone Floor Area During Reheat will be ignored.
   **   ~~~   ** Occurs in AirTerminal:SingleDuct:VAV:Reheat = CONFERENCE_14_Z19_VAVTERMINAL
   ** Warning ** Since Damper Heating Action = NORMAL, input for Maximum Flow Fraction During Reheat will be ignored.
   **   ~~~   ** Occurs in AirTerminal:SingleDuct:VAV:Reheat = CONFERENCE_14_Z19_VAVTERMINAL
   ** Warning ** Since Damper Heating Action = NORMAL, input for Maximum Flow per Zone Floor Area During Reheat will be ignored.
   **   ~~~   ** Occurs in AirTerminal:SingleDuct:VAV:Reheat = BREAK_ROOM_14_Z20_VAVTERMINAL
   ** Warning ** Since Damper Heating Action = NORMAL, input for Maximum Flow Fraction During Reheat will be ignored.
   **   ~~~   ** Occurs in AirTerminal:SingleDuct:VAV:Reheat = BREAK_ROOM_14_Z20_VAVTERMINAL
   ** Warning ** Since Damper Heating Action = NORMAL, input for Maximum Flow per Zone Floor Area During Reheat will be ignored.
   **   ~~~   ** Occurs in AirTerminal:SingleDuct:VAV:Reheat = MECHANICAL_14_Z21_VAVTERMINAL
   ** Warning ** Since Damper Heating Action = NORMAL, input for Maximum Flow Fraction During Reheat will be ignored.
   **   ~~~   ** Occurs in AirTerminal:SingleDuct:VAV:Reheat = MECHANICAL_14_Z21_VAVTERMINAL
   ** Warning ** Since Damper Heating Action = NORMAL, input for Maximum Flow per Zone Floor Area During Reheat will be ignored.
   **   ~~~   ** Occurs in AirTerminal:SingleDuct:VAV:Reheat = CONFERENCE_15_Z22_VAVTERMINAL
   ** Warning ** Since Damper Heating Action = NORMAL, input for Maximum Flow Fraction During Reheat will be ignored.
   **   ~~~   ** Occurs in AirTerminal:SingleDuct:VAV:Reheat = CONFERENCE_15_Z22_VAVTERMINAL
   ** Warning ** Since Damper Heating Action = NORMAL, input for Maximum Flow per Zone Floor Area During Reheat will be ignored.
   **   ~~~   ** Occurs in AirTerminal:SingleDuct:VAV:Reheat = STORAGE_15_Z23_VAVTERMINAL
   ** Warning ** Since Damper Heating Action = NORMAL, input for Maximum Flow Fraction During Reheat will be ignored.
   **   ~~~   ** Occurs in AirTerminal:SingleDuct:VAV:Reheat = STORAGE_15_Z23_VAVTERMINAL
   ** Warning ** Since Damper Heating Action = NORMAL, input for Maximum Flow per Zone Floor Area During Reheat will be ignored.
   **   ~~~   ** Occurs in AirTerminal:SingleDuct:VAV:Reheat = BREAK_ROOM_16_Z24_VAVTERMINAL
   ** Warning ** Since Damper Heating Action = NORMAL, input for Maximum Flow Fraction During Reheat will be ignored.
   **   ~~~   ** Occurs in AirTerminal:SingleDuct:VAV:Reheat = BREAK_ROOM_16_Z24_VAVTERMINAL
   ** Warning ** Since Damper Heating Action = NORMAL, input for Maximum Flow per Zone Floor Area During Reheat will be ignored.
   **   ~~~   ** Occurs in AirTerminal:SingleDuct:VAV:Reheat = OFFICE_OPEN_16_Z25_VAVTERMINAL
   ** Warning ** Since Damper Heating Action = NORMAL, input for Maximum Flow Fraction During Reheat will be ignored.
   **   ~~~   ** Occurs in AirTerminal:SingleDuct:VAV:Reheat = OFFICE_OPEN_16_Z25_VAVTERMINAL
   ** Warning ** Since Damper Heating Action = NORMAL, input for Maximum Flow per Zone Floor Area During Reheat will be ignored.
   **   ~~~   ** Occurs in AirTerminal:SingleDuct:VAV:Reheat = BREAK_ROOM_18_Z26_VAVTERMINAL
   ** Warning ** Since Damper Heating Action = NORMAL, input for Maximum Flow Fraction During Reheat will be ignored.
   **   ~~~   ** Occurs in AirTerminal:SingleDuct:VAV:Reheat = BREAK_ROOM_18_Z26_VAVTERMINAL
   ** Warning ** Since Damper Heating Action = NORMAL, input for Maximum Flow per Zone Floor Area During Reheat will be ignored.
   **   ~~~   ** Occurs in AirTerminal:SingleDuct:VAV:Reheat = OFFICE_PRIVATE_18_Z27_VAVTERMINAL
   ** Warning ** Since Damper Heating Action = NORMAL, input for Maximum Flow Fraction During Reheat will be ignored.
   **   ~~~   ** Occurs in AirTerminal:SingleDuct:VAV:Reheat = OFFICE_PRIVATE_18_Z27_VAVTERMINAL
   ** Warning ** Since Damper Heating Action = NORMAL, input for Maximum Flow per Zone Floor Area During Reheat will be ignored.
   **   ~~~   ** Occurs in AirTerminal:SingleDuct:VAV:Reheat = CONFERENCE_19_Z28_VAVTERMINAL
   ** Warning ** Since Damper Heating Action = NORMAL, input for Maximum Flow Fraction During Reheat will be ignored.
   **   ~~~   ** Occurs in AirTerminal:SingleDuct:VAV:Reheat = CONFERENCE_19_Z28_VAVTERMINAL
   ** Warning ** Since Damper Heating Action = NORMAL, input for Maximum Flow per Zone Floor Area During Reheat will be ignored.
   **   ~~~   ** Occurs in AirTerminal:SingleDuct:VAV:Reheat = MECHANICAL_19_Z29_VAVTERMINAL
   ** Warning ** Since Damper Heating Action = NORMAL, input for Maximum Flow Fraction During Reheat will be ignored.
   **   ~~~   ** Occurs in AirTerminal:SingleDuct:VAV:Reheat = MECHANICAL_19_Z29_VAVTERMINAL
   ** Warning ** Since Damper Heating Action = NORMAL, input for Maximum Flow per Zone Floor Area During Reheat will be ignored.
   **   ~~~   ** Occurs in AirTerminal:SingleDuct:VAV:Reheat = OFFICE_PRIVATE_19_Z30_VAVTERMINAL
   ** Warning ** Since Damper Heating Action = NORMAL, input for Maximum Flow Fraction During Reheat will be ignored.
   **   ~~~   ** Occurs in AirTerminal:SingleDuct:VAV:Reheat = OFFICE_PRIVATE_19_Z30_VAVTERMINAL
   ** Warning ** Since Damper Heating Action = NORMAL, input for Maximum Flow per Zone Floor Area During Reheat will be ignored.
   **   ~~~   ** Occurs in AirTerminal:SingleDuct:VAV:Reheat = STORAGE_22_Z31_VAVTERMINAL
   ** Warning ** Since Damper Heating Action = NORMAL, input for Maximum Flow Fraction During Reheat will be ignored.
   **   ~~~   ** Occurs in AirTerminal:SingleDuct:VAV:Reheat = STORAGE_22_Z31_VAVTERMINAL
   ** Warning ** Since Damper Heating Action = NORMAL, input for Maximum Flow per Zone Floor Area During Reheat will be ignored.
   **   ~~~   ** Occurs in AirTerminal:SingleDuct:VAV:Reheat = STORAGE_24_Z32_VAVTERMINAL
   ** Warning ** Since Damper Heating Action = NORMAL, input for Maximum Flow Fraction During Reheat will be ignored.
   **   ~~~   ** Occurs in AirTerminal:SingleDuct:VAV:Reheat = STORAGE_24_Z32_VAVTERMINAL
   ** Warning ** Since Damper Heating Action = NORMAL, input for Maximum Flow per Zone Floor Area During Reheat will be ignored.
   **   ~~~   ** Occurs in AirTerminal:SingleDuct:VAV:Reheat = BREAK_ROOM_25_Z33_VAVTERMINAL
   ** Warning ** Since Damper Heating Action = NORMAL, input for Maximum Flow Fraction During Reheat will be ignored.
   **   ~~~   ** Occurs in AirTerminal:SingleDuct:VAV:Reheat = BREAK_ROOM_25_Z33_VAVTERMINAL
   ** Warning ** Since Damper Heating Action = NORMAL, input for Maximum Flow per Zone Floor Area During Reheat will be ignored.
   **   ~~~   ** Occurs in AirTerminal:SingleDuct:VAV:Reheat = OFFICE_PRIVATE_25_Z34_VAVTERMINAL
   ** Warning ** Since Damper Heating Action = NORMAL, input for Maximum Flow Fraction During Reheat will be ignored.
   **   ~~~   ** Occurs in AirTerminal:SingleDuct:VAV:Reheat = OFFICE_PRIVATE_25_Z34_VAVTERMINAL
   ** Warning ** Since Damper Heating Action = NORMAL, input for Maximum Flow per Zone Floor Area During Reheat will be ignored.
   **   ~~~   ** Occurs in AirTerminal:SingleDuct:VAV:Reheat = STORAGE_25_Z35_VAVTERMINAL
   ** Warning ** Since Damper Heating Action = NORMAL, input for Maximum Flow Fraction During Reheat will be ignored.
   **   ~~~   ** Occurs in AirTerminal:SingleDuct:VAV:Reheat = STORAGE_25_Z35_VAVTERMINAL
   ** Warning ** Since Damper Heating Action = NORMAL, input for Maximum Flow per Zone Floor Area During Reheat will be ignored.
   **   ~~~   ** Occurs in AirTerminal:SingleDuct:VAV:Reheat = STORAGE_26_Z36_VAVTERMINAL
   ** Warning ** Since Damper Heating Action = NORMAL, input for Maximum Flow Fraction During Reheat will be ignored.
   **   ~~~   ** Occurs in AirTerminal:SingleDuct:VAV:Reheat = STORAGE_26_Z36_VAVTERMINAL
   ** Warning ** Since Damper Heating Action = NORMAL, input for Maximum Flow per Zone Floor Area During Reheat will be ignored.
   **   ~~~   ** Occurs in AirTerminal:SingleDuct:VAV:Reheat = CONFERENCE_27_Z37_VAVTERMINAL
   ** Warning ** Since Damper Heating Action = NORMAL, input for Maximum Flow Fraction During Reheat will be ignored.
   **   ~~~   ** Occurs in AirTerminal:SingleDuct:VAV:Reheat = CONFERENCE_27_Z37_VAVTERMINAL
   ** Warning ** Since Damper Heating Action = NORMAL, input for Maximum Flow per Zone Floor Area During Reheat will be ignored.
   **   ~~~   ** Occurs in AirTerminal:SingleDuct:VAV:Reheat = BREAK_ROOM_27_Z38_VAVTERMINAL
   ** Warning ** Since Damper Heating Action = NORMAL, input for Maximum Flow Fraction During Reheat will be ignored.
   **   ~~~   ** Occurs in AirTerminal:SingleDuct:VAV:Reheat = BREAK_ROOM_27_Z38_VAVTERMINAL
   ** Warning ** Since Damper Heating Action = NORMAL, input for Maximum Flow per Zone Floor Area During Reheat will be ignored.
   **   ~~~   ** Occurs in AirTerminal:SingleDuct:VAV:Reheat = OFFICE_PRIVATE_28_Z39_VAVTERMINAL
   ** Warning ** Since Damper Heating Action = NORMAL, input for Maximum Flow Fraction During Reheat will be ignored.
   **   ~~~   ** Occurs in AirTerminal:SingleDuct:VAV:Reheat = OFFICE_PRIVATE_28_Z39_VAVTERMINAL
   ** Warning ** Since Damper Heating Action = NORMAL, input for Maximum Flow per Zone Floor Area During Reheat will be ignored.
   **   ~~~   ** Occurs in AirTerminal:SingleDuct:VAV:Reheat = BREAK_ROOM_29_Z40_VAVTERMINAL
   ** Warning ** Since Damper Heating Action = NORMAL, input for Maximum Flow Fraction During Reheat will be ignored.
   **   ~~~   ** Occurs in AirTerminal:SingleDuct:VAV:Reheat = BREAK_ROOM_29_Z40_VAVTERMINAL
   ** Warning ** Since Damper Heating Action = NORMAL, input for Maximum Flow per Zone Floor Area During Reheat will be ignored.
   **   ~~~   ** Occurs in AirTerminal:SingleDuct:VAV:Reheat = STORAGE_29_Z41_VAVTERMINAL
   ** Warning ** Since Damper Heating Action = NORMAL, input for Maximum Flow Fraction During Reheat will be ignored.
   **   ~~~   ** Occurs in AirTerminal:SingleDuct:VAV:Reheat = STORAGE_29_Z41_VAVTERMINAL
[...]
   *************
   *************  ** Warning ** CalcDoe2DXCoil: Coil:Cooling:DX:SingleSpeed="MECHANICAL_19_Z29_COOLINGCOILDX" - Full load outlet temperature indicates a possibility of frost/freeze error continues. Outlet air temperature statistics follow:
   *************  **   ~~~   **   This error occurred 29899 total times;
   *************  **   ~~~   **   during Warmup 0 times;
   *************  **   ~~~   **   during Sizing 0 times.
   *************  **   ~~~   **   Max=-19.405565  Min=-52.304232
   *************
   *************  ** Warning ** CalcDoe2DXCoil: Coil:Cooling:DX:SingleSpeed="BREAK_ROOM_42_Z60_COOLINGCOILDX" - Full load outlet temperature indicates a possibility of frost/freeze error continues. Outlet air temperature statistics follow:
   *************  **   ~~~   **   This error occurred 30134 total times;
   *************  **   ~~~   **   during Warmup 0 times;
   *************  **   ~~~   **   during Sizing 0 times.
   *************  **   ~~~   **   Max=-18.597952  Min=-50.725936
   *************
   *************  ** Warning ** CalcDoe2DXCoil: Coil:Cooling:DX:SingleSpeed="CONFERENCE_19_Z28_COOLINGCOILDX" - Air volume flow rate per watt of rated total cooling capacity is out of range error continues...
   *************  **   ~~~   **   This error occurred 79930 total times;
   *************  **   ~~~   **   during Warmup 0 times;
   *************  **   ~~~   **   during Sizing 0 times.
   *************  **   ~~~   **   Max=0.000011  Min=0.000010
   *************
   *************  ** Warning ** CalcDoe2DXCoil: Coil:Cooling:DX:SingleSpeed="STORAGE_42_Z61_COOLINGCOILDX" - Air volume flow rate per watt of rated total cooling capacity is out of range error continues...
   *************  **   ~~~   **   This error occurred 76512 total times;
   *************  **   ~~~   **   during Warmup 0 times;
   *************  **   ~~~   **   during Sizing 0 times.
   *************  **   ~~~   **   Max=0.000011  Min=0.000010
   *************
   *************  ** Warning ** CalcDoe2DXCoil: Coil:Cooling:DX:SingleSpeed="BREAK_ROOM_46_Z68_COOLINGCOILDX" - Air volume flow rate per watt of rated total cooling capacity is out of range error continues...
   *************  **   ~~~   **   This error occurred 79730 total times;
   *************  **   ~~~   **   during Warmup 0 times;
   *************  **   ~~~   **   during Sizing 0 times.
   *************  **   ~~~   **   Max=0.000011  Min=0.000010
   *************
   *************  ** Warning ** CalcDoe2DXCoil: Coil:Cooling:DX:SingleSpeed="STORAGE_48_Z71_COOLINGCOILDX" - Air volume flow rate per watt of rated total cooling capacity is out of range error continues...
   *************  **   ~~~   **   This error occurred 76334 total times;
   *************  **   ~~~   **   during Warmup 0 times;
   *************  **   ~~~   **   during Sizing 0 times.
   *************  **   ~~~   **   Max=0.000011  Min=0.000010
   *************
   *************  ** Warning ** CalcDoe2DXCoil: Coil:Cooling:DX:SingleSpeed="CONFERENCE_19_Z28_COOLINGCOILDX" - Full load outlet temperature indicates a possibility of frost/freeze error continues. Outlet air temperature statistics follow:
   *************  **   ~~~   **   This error occurred 30354 total times;
   *************  **   ~~~   **   during Warmup 0 times;
   *************  **   ~~~   **   during Sizing 0 times.
   *************  **   ~~~   **   Max=-9.426260  Min=-49.690822
   *************
   *************  ** Warning ** CalcDoe2DXCoil: Coil:Cooling:DX:SingleSpeed="STORAGE_42_Z61_COOLINGCOILDX" - Full load outlet temperature indicates a possibility of frost/freeze error continues. Outlet air temperature statistics follow:
   *************  **   ~~~   **   This error occurred 29016 total times;
   *************  **   ~~~   **   during Warmup 0 times;
   *************  **   ~~~   **   during Sizing 0 times.
   *************  **   ~~~   **   Max=-19.792951  Min=-52.246456
   *************
   *************  ** Warning ** CalcDoe2DXCoil: Coil:Cooling:DX:SingleSpeed="BREAK_ROOM_46_Z68_COOLINGCOILDX" - Full load outlet temperature indicates a possibility of frost/freeze error continues. Outlet air temperature statistics follow:
   *************  **   ~~~   **   This error occurred 30276 total times;
   *************  **   ~~~   **   during Warmup 0 times;
   *************  **   ~~~   **   during Sizing 0 times.
   *************  **   ~~~   **   Max=-17.762120  Min=-50.702188
   *************
   *************  ** Warning ** CalcDoe2DXCoil: Coil:Cooling:DX:SingleSpeed="STORAGE_48_Z71_COOLINGCOILDX" - Full load outlet temperature indicates a possibility of frost/freeze error continues. Outlet air temperature statistics follow:
   *************  **   ~~~   **   This error occurred 28952 total times;
   *************  **   ~~~   **   during Warmup 0 times;
   *************  **   ~~~   **   during Sizing 0 times.
   *************  **   ~~~   **   Max=-19.627911  Min=-52.206969
   *************
   *************  ** Warning ** CalcDoe2DXCoil: Coil:Cooling:DX:SingleSpeed="MECHANICAL_52_Z76_COOLINGCOILDX" - Air volume flow rate per watt of rated total cooling capacity is out of range error continues...
   *************  **   ~~~   **   This error occurred 74110 total times;
   *************  **   ~~~   **   during Warmup 0 times;
   *************  **   ~~~   **   during Sizing 0 times.
   *************  **   ~~~   **   Max=0.000011  Min=0.000010
   *************
   *************  ** Warning ** CalcDoe2DXCoil: Coil:Cooling:DX:SingleSpeed="MECHANICAL_52_Z76_COOLINGCOILDX" - Full load outlet temperature indicates a possibility of frost/freeze error continues. Outlet air temperature statistics follow:
   *************  **   ~~~   **   This error occurred 28051 total times;
   *************  **   ~~~   **   during Warmup 0 times;
   *************  **   ~~~   **   during Sizing 0 times.
   *************  **   ~~~   **   Max=-22.050424  Min=-52.221822
   *************
   *************  ** Warning ** CalcDoe2DXCoil: Coil:Cooling:DX:SingleSpeed="CONFERENCE_30_Z42_COOLINGCOILDX" - Air volume flow rate per watt of rated total cooling capacity is out of range error continues...
   *************  **   ~~~   **   This error occurred 78378 total times;
   *************  **   ~~~   **   during Warmup 0 times;
   *************  **   ~~~   **   during Sizing 0 times.
   *************  **   ~~~   **   Max=0.000011  Min=0.000010
   *************
   *************  ** Warning ** CalcDoe2DXCoil: Coil:Cooling:DX:SingleSpeed="CONFERENCE_30_Z42_COOLINGCOILDX" - Full load outlet temperature indicates a possibility of frost/freeze error continues. Outlet air temperature statistics follow:
   *************  **   ~~~   **   This error occurred 29781 total times;
   *************  **   ~~~   **   during Warmup 0 times;
   *************  **   ~~~   **   during Sizing 0 times.
   *************  **   ~~~   **   Max=-9.707074  Min=-49.703739
   *************
   *************  ** Warning ** CalcDoe2DXCoil: Coil:Cooling:DX:SingleSpeed="CONFERENCE_27_Z37_COOLINGCOILDX" - Air volume flow rate per watt of rated total cooling capacity is out of range error continues...
   *************  **   ~~~   **   This error occurred 79342 total times;
   *************  **   ~~~   **   during Warmup 0 times;
   *************  **   ~~~   **   during Sizing 0 times.
   *************  **   ~~~   **   Max=0.000011  Min=0.000010
   *************
   *************  ** Warning ** CalcDoe2DXCoil: Coil:Cooling:DX:SingleSpeed="MECHANICAL_40_Z57_COOLINGCOILDX" - Air volume flow rate per watt of rated total cooling capacity is out of range error continues...
   *************  **   ~~~   **   This error occurred 75824 total times;
   *************  **   ~~~   **   during Warmup 0 times;
   *************  **   ~~~   **   during Sizing 0 times.
   *************  **   ~~~   **   Max=0.000011  Min=0.000010
   *************
   *************  ** Warning ** CalcDoe2DXCoil: Coil:Cooling:DX:SingleSpeed="CONFERENCE_27_Z37_COOLINGCOILDX" - Full load outlet temperature indicates a possibility of frost/freeze error continues. Outlet air temperature statistics follow:
   *************  **   ~~~   **   This error occurred 30139 total times;
   *************  **   ~~~   **   during Warmup 0 times;
   *************  **   ~~~   **   during Sizing 0 times.
   *************  **   ~~~   **   Max=-9.485458  Min=-49.702548
   *************
   *************  ** Warning ** CalcDoe2DXCoil: Coil:Cooling:DX:SingleSpeed="MECHANICAL_40_Z57_COOLINGCOILDX" - Full load outlet temperature indicates a possibility of frost/freeze error continues. Outlet air temperature statistics follow:
   *************  **   ~~~   **   This error occurred 28765 total times;
   *************  **   ~~~   **   during Warmup 0 times;
   *************  **   ~~~   **   during Sizing 0 times.
   *************  **   ~~~   **   Max=-19.946735  Min=-51.678477
   *************
   *************  ** Warning ** CalcDoe2DXCoil: Coil:Cooling:DX:SingleSpeed="STORAGE_26_Z36_COOLINGCOILDX" - Air volume flow rate per watt of rated total cooling capacity is out of range error continues...
   *************  **   ~~~   **   This error occurred 74626 total times;
   *************  **   ~~~   **   during Warmup 0 times;
   *************  **   ~~~   **   during Sizing 0 times.
   *************  **   ~~~   **   Max=0.000011  Min=0.000010
   *************
   *************  ** Warning ** CalcDoe2DXCoil: Coil:Cooling:DX:SingleSpeed="STORAGE_26_Z36_COOLINGCOILDX" - Full load outlet temperature indicates a possibility of frost/freeze error continues. Outlet air temperature statistics follow:
   *************  **   ~~~   **   This error occurred 28296 total times;
   *************  **   ~~~   **   during Warmup 0 times;
   *************  **   ~~~   **   during Sizing 0 times.
   *************  **   ~~~   **   Max=-20.253104  Min=-51.469002
   *************
   *************  ** Warning ** CalcDoe2DXCoil: Coil:Cooling:DX:SingleSpeed="LOBBY_14_Z18_COOLINGCOILDX" - Air volume flow rate per watt of rated total cooling capacity is out of range error continues...
   *************  **   ~~~   **   This error occurred 77258 total times;
   *************  **   ~~~   **   during Warmup 0 times;
   *************  **   ~~~   **   during Sizing 0 times.
   *************  **   ~~~   **   Max=0.000011  Min=0.000010
   *************
   *************  ** Warning ** CalcDoe2DXCoil: Coil:Cooling:DX:SingleSpeed="OFFICE_OPEN_16_Z25_COOLINGCOILDX" - Air volume flow rate per watt of rated total cooling capacity is out of range error continues...
   *************  **   ~~~   **   This error occurred 78126 total times;
   *************  **   ~~~   **   during Warmup 0 times;
   *************  **   ~~~   **   during Sizing 0 times.
   *************  **   ~~~   **   Max=0.000011  Min=0.000010
   *************
   *************  ** Warning ** CalcDoe2DXCoil: Coil:Cooling:DX:SingleSpeed="LOBBY_14_Z18_COOLINGCOILDX" - Full load outlet temperature indicates a possibility of frost/freeze error continues. Outlet air temperature statistics follow:
   *************  **   ~~~   **   This error occurred 29347 total times;
   *************  **   ~~~   **   during Warmup 0 times;
   *************  **   ~~~   **   during Sizing 0 times.
   *************  **   ~~~   **   Max=-20.707996  Min=-51.136263
   *************
   *************  ** Warning ** CalcDoe2DXCoil: Coil:Cooling:DX:SingleSpeed="OFFICE_OPEN_16_Z25_COOLINGCOILDX" - Full load outlet temperature indicates a possibility of frost/freeze error continues. Outlet air temperature statistics follow:
   *************  **   ~~~   **   This error occurred 29682 total times;
   *************  **   ~~~   **   during Warmup 0 times;
   *************  **   ~~~   **   during Sizing 0 times.
   *************  **   ~~~   **   Max=-17.853218  Min=-50.813614
   *************
   *************  ** Warning ** CalcDoe2DXCoil: Coil:Cooling:DX:SingleSpeed="CONFERENCE_51_Z73_COOLINGCOILDX" - Air volume flow rate per watt of rated total cooling capacity is out of range error continues...
   *************  **   ~~~   **   This error occurred 76808 total times;
   *************  **   ~~~   **   during Warmup 0 times;
   *************  **   ~~~   **   during Sizing 0 times.
   *************  **   ~~~   **   Max=0.000011  Min=0.000010
   *************
   *************  ** Warning ** CalcDoe2DXCoil: Coil:Cooling:DX:SingleSpeed="CONFERENCE_51_Z73_COOLINGCOILDX" - Full load outlet temperature indicates a possibility of frost/freeze error continues. Outlet air temperature statistics follow:
   *************  **   ~~~   **   This error occurred 29170 total times;
   *************  **   ~~~   **   during Warmup 0 times;
   *************  **   ~~~   **   during Sizing 0 times.
   *************  **   ~~~   **   Max=-9.560865  Min=-49.379214
   *************
   *************  ** Warning ** CalcDoe2DXCoil: Coil:Cooling:DX:SingleSpeed="LOBBY_1_Z3_COOLINGCOILDX" - Air volume flow rate per watt of rated total cooling capacity is out of range error continues...
   *************  **   ~~~   **   This error occurred 78632 total times;
   *************  **   ~~~   **   during Warmup 0 times;
   *************  **   ~~~   **   during Sizing 0 times.
   *************  **   ~~~   **   Max=0.000011  Min=0.000010
   *************
   *************  ** Warning ** CalcDoe2DXCoil: Coil:Cooling:DX:SingleSpeed="MECHANICAL_3_Z8_COOLINGCOILDX" - Air volume flow rate per watt of rated total cooling capacity is out of range error continues...
   *************  **   ~~~   **   This error occurred 77612 total times;
   *************  **   ~~~   **   during Warmup 0 times;
   *************  **   ~~~   **   during Sizing 0 times.
   *************  **   ~~~   **   Max=0.000011  Min=0.000010
   *************
   *************  ** Warning ** CalcDoe2DXCoil: Coil:Cooling:DX:SingleSpeed="LOBBY_1_Z3_COOLINGCOILDX" - Full load outlet temperature indicates a possibility of frost/freeze error continues. Outlet air temperature statistics follow:
   *************  **   ~~~   **   This error occurred 29878 total times;
   *************  **   ~~~   **   during Warmup 0 times;
   *************  **   ~~~   **   during Sizing 0 times.
   *************  **   ~~~   **   Max=-20.459713  Min=-51.272062
   *************
   *************  ** Warning ** CalcDoe2DXCoil: Coil:Cooling:DX:SingleSpeed="MECHANICAL_3_Z8_COOLINGCOILDX" - Full load outlet temperature indicates a possibility of frost/freeze error continues. Outlet air temperature statistics follow:
   *************  **   ~~~   **   This error occurred 29500 total times;
   *************  **   ~~~   **   during Warmup 0 times;
   *************  **   ~~~   **   during Sizing 0 times.
   *************  **   ~~~   **   Max=-20.560122  Min=-52.014928
   *************
   *************  ** Warning ** CalcDoe2DXCoil: Coil:Cooling:DX:SingleSpeed="LOBBY_51_Z72_COOLINGCOILDX" - Air volume flow rate per watt of rated total cooling capacity is out of range error continues...
   *************  **   ~~~   **   This error occurred 75202 total times;
   *************  **   ~~~   **   during Warmup 0 times;
   *************  **   ~~~   **   during Sizing 0 times.
   *************  **   ~~~   **   Max=0.000011  Min=0.000010
   *************
   *************  ** Warning ** CalcDoe2DXCoil: Coil:Cooling:DX:SingleSpeed="LOBBY_51_Z72_COOLINGCOILDX" - Full load outlet temperature indicates a possibility of frost/freeze error continues. Outlet air temperature statistics follow:
   *************  **   ~~~   **   This error occurred 28555 total times;
   *************  **   ~~~   **   during Warmup 0 times;
   *************  **   ~~~   **   during Sizing 0 times.
   *************  **   ~~~   **   Max=-20.318058  Min=-50.687319
   *************
   *************  ** Warning ** CalcDoe2DXCoil: Coil:Cooling:DX:SingleSpeed="MECHANICAL_51_Z74_COOLINGCOILDX" - Air volume flow rate per watt of rated total cooling capacity is out of range error continues...
   *************  **   ~~~   **   This error occurred 73666 total times;
   *************  **   ~~~   **   during Warmup 0 times;
   *************  **   ~~~   **   during Sizing 0 times.
   *************  **   ~~~   **   Max=0.000011  Min=0.000010
   *************
   *************  ** Warning ** CalcDoe2DXCoil: Coil:Cooling:DX:SingleSpeed="MECHANICAL_51_Z74_COOLINGCOILDX" - Full load outlet temperature indicates a possibility of frost/freeze error continues. Outlet air temperature statistics follow:
   *************  **   ~~~   **   This error occurred 27929 total times;
   *************  **   ~~~   **   during Warmup 0 times;
   *************  **   ~~~   **   during Sizing 0 times.
   *************  **   ~~~   **   Max=-21.203876  Min=-51.684567
   *************
   *************  ** Warning ** CalcDoe2DXCoil: Coil:Cooling:DX:SingleSpeed="OFFICE_OPEN_54_Z80_COOLINGCOILDX" - Air volume flow rate per watt of rated total cooling capacity is out of range error continues...
   *************  **   ~~~   **   This error occurred 74450 total times;
   *************  **   ~~~   **   during Warmup 0 times;
   *************  **   ~~~   **   during Sizing 0 times.
   *************  **   ~~~   **   Max=0.000011  Min=0.000010
   *************
   *************  ** Warning ** CalcDoe2DXCoil: Coil:Cooling:DX:SingleSpeed="OFFICE_OPEN_54_Z80_COOLINGCOILDX" - Full load outlet temperature indicates a possibility of frost/freeze error continues. Outlet air temperature statistics follow:
   *************  **   ~~~   **   This error occurred 28279 total times;
   *************  **   ~~~   **   during Warmup 0 times;
   *************  **   ~~~   **   during Sizing 0 times.
   *************  **   ~~~   **   Max=-18.346184  Min=-50.503374
   *************
   *************  ** Warning ** CalcDoe2DXCoil: Coil:Cooling:DX:SingleSpeed="LOBBY_43_Z62_COOLINGCOILDX" - Air volume flow rate per watt of rated total cooling capacity is out of range error continues...
   *************  **   ~~~   **   This error occurred 73688 total times;
   *************  **   ~~~   **   during Warmup 0 times;
   *************  **   ~~~   **   during Sizing 0 times.
   *************  **   ~~~   **   Max=0.000011  Min=0.000010
   *************
   *************  ** Warning ** CalcDoe2DXCoil: Coil:Cooling:DX:SingleSpeed="LOBBY_43_Z62_COOLINGCOILDX" - Full load outlet temperature indicates a possibility of frost/freeze error continues. Outlet air temperature statistics follow:
   *************  **   ~~~   **   This error occurred 27983 total times;
   *************  **   ~~~   **   during Warmup 0 times;
   *************  **   ~~~   **   during Sizing 0 times.
   *************  **   ~~~   **   Max=-21.433692  Min=-50.542642
   *************
   *************  ** Warning ** CalcDoe2DXCoil: Coil:Cooling:DX:SingleSpeed="LOBBY_54_Z78_COOLINGCOILDX" - Air volume flow rate per watt of rated total cooling capacity is out of range error continues...
   *************  **   ~~~   **   This error occurred 73482 total times;
   *************  **   ~~~   **   during Warmup 0 times;
   *************  **   ~~~   **   during Sizing 0 times.
   *************  **   ~~~   **   Max=0.000011  Min=0.000010
   *************
   *************  ** Warning ** CalcDoe2DXCoil: Coil:Cooling:DX:SingleSpeed="LOBBY_54_Z78_COOLINGCOILDX" - Full load outlet temperature indicates a possibility of frost/freeze error continues. Outlet air temperature statistics follow:
   *************  **   ~~~   **   This error occurred 27918 total times;
   *************  **   ~~~   **   during Warmup 0 times;
   *************  **   ~~~   **   during Sizing 0 times.
   *************  **   ~~~   **   Max=-21.155837  Min=-50.505495
   *************
   ************* EnergyPlus Warmup Error Summary. During Warmup: 0 Warning; 0 Severe Errors.
   ************* EnergyPlus Sizing Error Summary. During Sizing: 0 Warning; 0 Severe Errors.
   ************* EnergyPlus Completed Successfully-- 8883107 Warning; 0 Severe Errors; Elapsed Time=00hr 04min  0.42sec
