Program Version,EnergyPlus, Version 24.2.0-94a887817b, YMD=2025.11.02 18:37
! This file shows details about the branches, nodes, and other
! elements of the flow connections.
! This file is intended for use in "debugging" potential problems
! that may also be detected by the program, but may be more easily
! identified by "eye".
! This file is also intended to support software which draws a
! schematic diagram of the HVAC system.
! ===============================================================
! #Nodes,<Number of Unique Nodes>
 #Nodes,880
! <Node>,<NodeNumber>,<Node Name>,<Node Fluid Type>,<# Times Node Referenced After Definition>
 Node,1,MECHANICAL_0_Z1_ADUOUTLET,Air,4
 Node,2,OFFICE_PRIVATE_0_Z2_ADUOUTLET,Air,4
 Node,3,LOBBY_1_Z3_ADUOUTLET,Air,4
 Node,4,OFFICE_PRIVATE_1_Z4_ADUOUTLET,Air,4
 Node,5,BREAK_ROOM_2_Z5_ADUOUTLET,Air,4
 Node,6,OFFICE_PRIVATE_2_Z6_ADUOUTLET,Air,4
 Node,7,STORAGE_2_Z7_ADUOUTLET,Air,4
 Node,8,MECHANICAL_3_Z8_ADUOUTLET,Air,4
 Node,9,OFFICE_PRIVATE_3_Z9_ADUOUTLET,Air,4
 Node,10,OFFICE_PRIVATE_4_Z10_ADUOUTLET,Air,4
 Node,11,STORAGE_4_Z11_ADUOUTLET,Air,4
 Node,12,BREAK_ROOM_6_Z12_ADUOUTLET,Air,4
 Node,13,BREAK_ROOM_8_Z13_ADUOUTLET,Air,4
 Node,14,STORAGE_8_Z14_ADUOUTLET,Air,4
 Node,15,BREAK_ROOM_11_Z15_ADUOUTLET,Air,4
 Node,16,CONFERENCE_13_Z16_ADUOUTLET,Air,4
 Node,17,STORAGE_13_Z17_ADUOUTLET,Air,4
 Node,18,LOBBY_14_Z18_ADUOUTLET,Air,4
 Node,19,CONFERENCE_14_Z19_ADUOUTLET,Air,4
 Node,20,BREAK_ROOM_14_Z20_ADUOUTLET,Air,4
 Node,21,MECHANICAL_14_Z21_ADUOUTLET,Air,4
 Node,22,CONFERENCE_15_Z22_ADUOUTLET,Air,4
 Node,23,STORAGE_15_Z23_ADUOUTLET,Air,4
 Node,24,BREAK_ROOM_16_Z24_ADUOUTLET,Air,4
 Node,25,OFFICE_OPEN_16_Z25_ADUOUTLET,Air,4
 Node,26,BREAK_ROOM_18_Z26_ADUOUTLET,Air,4
 Node,27,OFFICE_PRIVATE_18_Z27_ADUOUTLET,Air,4
 Node,28,CONFERENCE_19_Z28_ADUOUTLET,Air,4
 Node,29,MECHANICAL_19_Z29_ADUOUTLET,Air,4
 Node,30,OFFICE_PRIVATE_19_Z30_ADUOUTLET,Air,4
 Node,31,STORAGE_22_Z31_ADUOUTLET,Air,4
 Node,32,STORAGE_24_Z32_ADUOUTLET,Air,4
 Node,33,BREAK_ROOM_25_Z33_ADUOUTLET,Air,4
 Node,34,OFFICE_PRIVATE_25_Z34_ADUOUTLET,Air,4
 Node,35,STORAGE_25_Z35_ADUOUTLET,Air,4
 Node,36,STORAGE_26_Z36_ADUOUTLET,Air,4
 Node,37,CONFERENCE_27_Z37_ADUOUTLET,Air,4
 Node,38,BREAK_ROOM_27_Z38_ADUOUTLET,Air,4
 Node,39,OFFICE_PRIVATE_28_Z39_ADUOUTLET,Air,4
 Node,40,BREAK_ROOM_29_Z40_ADUOUTLET,Air,4
 Node,41,STORAGE_29_Z41_ADUOUTLET,Air,4
 Node,42,CONFERENCE_30_Z42_ADUOUTLET,Air,4
 Node,43,STORAGE_31_Z43_ADUOUTLET,Air,4
 Node,44,BREAK_ROOM_32_Z44_ADUOUTLET,Air,4
 Node,45,MECHANICAL_32_Z45_ADUOUTLET,Air,4
 Node,46,STORAGE_32_Z46_ADUOUTLET,Air,4
 Node,47,OFFICE_PRIVATE_33_Z47_ADUOUTLET,Air,4
 Node,48,OFFICE_PRIVATE_34_Z48_ADUOUTLET,Air,4
 Node,49,STORAGE_34_Z49_ADUOUTLET,Air,4
 Node,50,MECHANICAL_35_Z50_ADUOUTLET,Air,4
 Node,51,CONFERENCE_36_Z51_ADUOUTLET,Air,4
 Node,52,OFFICE_PRIVATE_36_Z52_ADUOUTLET,Air,4
 Node,53,OFFICE_PRIVATE_37_Z53_ADUOUTLET,Air,4
 Node,54,STORAGE_38_Z54_ADUOUTLET,Air,4
 Node,55,CONFERENCE_39_Z55_ADUOUTLET,Air,4
 Node,56,BREAK_ROOM_40_Z56_ADUOUTLET,Air,4
 Node,57,MECHANICAL_40_Z57_ADUOUTLET,Air,4
 Node,58,MECHANICAL_41_Z58_ADUOUTLET,Air,4
 Node,59,OFFICE_PRIVATE_41_Z59_ADUOUTLET,Air,4
 Node,60,BREAK_ROOM_42_Z60_ADUOUTLET,Air,4
 Node,61,STORAGE_42_Z61_ADUOUTLET,Air,4
 Node,62,LOBBY_43_Z62_ADUOUTLET,Air,4
 Node,63,STORAGE_43_Z63_ADUOUTLET,Air,4
 Node,64,BREAK_ROOM_44_Z64_ADUOUTLET,Air,4
 Node,65,OFFICE_PRIVATE_44_Z65_ADUOUTLET,Air,4
 Node,66,CONFERENCE_45_Z66_ADUOUTLET,Air,4
 Node,67,OFFICE_PRIVATE_45_Z67_ADUOUTLET,Air,4
 Node,68,BREAK_ROOM_46_Z68_ADUOUTLET,Air,4
 Node,69,OFFICE_PRIVATE_47_Z69_ADUOUTLET,Air,4
 Node,70,BREAK_ROOM_48_Z70_ADUOUTLET,Air,4
 Node,71,STORAGE_48_Z71_ADUOUTLET,Air,4
 Node,72,LOBBY_51_Z72_ADUOUTLET,Air,4
 Node,73,CONFERENCE_51_Z73_ADUOUTLET,Air,4
 Node,74,MECHANICAL_51_Z74_ADUOUTLET,Air,4
 Node,75,OFFICE_PRIVATE_51_Z75_ADUOUTLET,Air,4
 Node,76,MECHANICAL_52_Z76_ADUOUTLET,Air,4
 Node,77,OFFICE_PRIVATE_52_Z77_ADUOUTLET,Air,4
 Node,78,LOBBY_54_Z78_ADUOUTLET,Air,4
 Node,79,BREAK_ROOM_54_Z79_ADUOUTLET,Air,4
 Node,80,OFFICE_OPEN_54_Z80_ADUOUTLET,Air,4
 Node,81,MECHANICAL_0_Z1_SUPPLYINLET,Air,3
 Node,82,MECHANICAL_0_Z1_COOLC-HEATCNODE,Air,6
 Node,83,MECHANICAL_0_Z1_HEATC-FANNODE,Air,5
 Node,84,MECHANICAL_0_Z1_SUPPLYEQUIPMENTOUTLETNODE,Air,3
 Node,85,OFFICE_PRIVATE_0_Z2_SUPPLYINLET,Air,3
 Node,86,OFFICE_PRIVATE_0_Z2_COOLC-HEATCNODE,Air,6
 Node,87,OFFICE_PRIVATE_0_Z2_HEATC-FANNODE,Air,5
 Node,88,OFFICE_PRIVATE_0_Z2_SUPPLYEQUIPMENTOUTLETNODE,Air,3
 Node,89,LOBBY_1_Z3_SUPPLYINLET,Air,3
 Node,90,LOBBY_1_Z3_COOLC-HEATCNODE,Air,6
 Node,91,LOBBY_1_Z3_HEATC-FANNODE,Air,5
 Node,92,LOBBY_1_Z3_SUPPLYEQUIPMENTOUTLETNODE,Air,3
 Node,93,OFFICE_PRIVATE_1_Z4_SUPPLYINLET,Air,3
 Node,94,OFFICE_PRIVATE_1_Z4_COOLC-HEATCNODE,Air,6
 Node,95,OFFICE_PRIVATE_1_Z4_HEATC-FANNODE,Air,5
 Node,96,OFFICE_PRIVATE_1_Z4_SUPPLYEQUIPMENTOUTLETNODE,Air,3
 Node,97,BREAK_ROOM_2_Z5_SUPPLYINLET,Air,3
 Node,98,BREAK_ROOM_2_Z5_COOLC-HEATCNODE,Air,6
 Node,99,BREAK_ROOM_2_Z5_HEATC-FANNODE,Air,5
 Node,100,BREAK_ROOM_2_Z5_SUPPLYEQUIPMENTOUTLETNODE,Air,3
 Node,101,OFFICE_PRIVATE_2_Z6_SUPPLYINLET,Air,3
 Node,102,OFFICE_PRIVATE_2_Z6_COOLC-HEATCNODE,Air,6
 Node,103,OFFICE_PRIVATE_2_Z6_HEATC-FANNODE,Air,5
 Node,104,OFFICE_PRIVATE_2_Z6_SUPPLYEQUIPMENTOUTLETNODE,Air,3
 Node,105,STORAGE_2_Z7_SUPPLYINLET,Air,3
 Node,106,STORAGE_2_Z7_COOLC-HEATCNODE,Air,6
 Node,107,STORAGE_2_Z7_HEATC-FANNODE,Air,5
 Node,108,STORAGE_2_Z7_SUPPLYEQUIPMENTOUTLETNODE,Air,3
 Node,109,MECHANICAL_3_Z8_SUPPLYINLET,Air,3
 Node,110,MECHANICAL_3_Z8_COOLC-HEATCNODE,Air,6
 Node,111,MECHANICAL_3_Z8_HEATC-FANNODE,Air,5
 Node,112,MECHANICAL_3_Z8_SUPPLYEQUIPMENTOUTLETNODE,Air,3
 Node,113,OFFICE_PRIVATE_3_Z9_SUPPLYINLET,Air,3
 Node,114,OFFICE_PRIVATE_3_Z9_COOLC-HEATCNODE,Air,6
 Node,115,OFFICE_PRIVATE_3_Z9_HEATC-FANNODE,Air,5
 Node,116,OFFICE_PRIVATE_3_Z9_SUPPLYEQUIPMENTOUTLETNODE,Air,3
 Node,117,OFFICE_PRIVATE_4_Z10_SUPPLYINLET,Air,3
 Node,118,OFFICE_PRIVATE_4_Z10_COOLC-HEATCNODE,Air,6
 Node,119,OFFICE_PRIVATE_4_Z10_HEATC-FANNODE,Air,5
 Node,120,OFFICE_PRIVATE_4_Z10_SUPPLYEQUIPMENTOUTLETNODE,Air,3
 Node,121,STORAGE_4_Z11_SUPPLYINLET,Air,3
 Node,122,STORAGE_4_Z11_COOLC-HEATCNODE,Air,6
 Node,123,STORAGE_4_Z11_HEATC-FANNODE,Air,5
 Node,124,STORAGE_4_Z11_SUPPLYEQUIPMENTOUTLETNODE,Air,3
 Node,125,BREAK_ROOM_6_Z12_SUPPLYINLET,Air,3
 Node,126,BREAK_ROOM_6_Z12_COOLC-HEATCNODE,Air,6
 Node,127,BREAK_ROOM_6_Z12_HEATC-FANNODE,Air,5
 Node,128,BREAK_ROOM_6_Z12_SUPPLYEQUIPMENTOUTLETNODE,Air,3
 Node,129,BREAK_ROOM_8_Z13_SUPPLYINLET,Air,3
 Node,130,BREAK_ROOM_8_Z13_COOLC-HEATCNODE,Air,6
 Node,131,BREAK_ROOM_8_Z13_HEATC-FANNODE,Air,5
 Node,132,BREAK_ROOM_8_Z13_SUPPLYEQUIPMENTOUTLETNODE,Air,3
 Node,133,STORAGE_8_Z14_SUPPLYINLET,Air,3
 Node,134,STORAGE_8_Z14_COOLC-HEATCNODE,Air,6
 Node,135,STORAGE_8_Z14_HEATC-FANNODE,Air,5
 Node,136,STORAGE_8_Z14_SUPPLYEQUIPMENTOUTLETNODE,Air,3
 Node,137,BREAK_ROOM_11_Z15_SUPPLYINLET,Air,3
 Node,138,BREAK_ROOM_11_Z15_COOLC-HEATCNODE,Air,6
 Node,139,BREAK_ROOM_11_Z15_HEATC-FANNODE,Air,5
 Node,140,BREAK_ROOM_11_Z15_SUPPLYEQUIPMENTOUTLETNODE,Air,3
 Node,141,CONFERENCE_13_Z16_SUPPLYINLET,Air,3
 Node,142,CONFERENCE_13_Z16_COOLC-HEATCNODE,Air,6
 Node,143,CONFERENCE_13_Z16_HEATC-FANNODE,Air,5
 Node,144,CONFERENCE_13_Z16_SUPPLYEQUIPMENTOUTLETNODE,Air,3
 Node,145,STORAGE_13_Z17_SUPPLYINLET,Air,3
 Node,146,STORAGE_13_Z17_COOLC-HEATCNODE,Air,6
 Node,147,STORAGE_13_Z17_HEATC-FANNODE,Air,5
 Node,148,STORAGE_13_Z17_SUPPLYEQUIPMENTOUTLETNODE,Air,3
 Node,149,LOBBY_14_Z18_SUPPLYINLET,Air,3
 Node,150,LOBBY_14_Z18_COOLC-HEATCNODE,Air,6
 Node,151,LOBBY_14_Z18_HEATC-FANNODE,Air,5
 Node,152,LOBBY_14_Z18_SUPPLYEQUIPMENTOUTLETNODE,Air,3
 Node,153,CONFERENCE_14_Z19_SUPPLYINLET,Air,3
 Node,154,CONFERENCE_14_Z19_COOLC-HEATCNODE,Air,6
 Node,155,CONFERENCE_14_Z19_HEATC-FANNODE,Air,5
 Node,156,CONFERENCE_14_Z19_SUPPLYEQUIPMENTOUTLETNODE,Air,3
 Node,157,BREAK_ROOM_14_Z20_SUPPLYINLET,Air,3
 Node,158,BREAK_ROOM_14_Z20_COOLC-HEATCNODE,Air,6
 Node,159,BREAK_ROOM_14_Z20_HEATC-FANNODE,Air,5
 Node,160,BREAK_ROOM_14_Z20_SUPPLYEQUIPMENTOUTLETNODE,Air,3
 Node,161,MECHANICAL_14_Z21_SUPPLYINLET,Air,3
 Node,162,MECHANICAL_14_Z21_COOLC-HEATCNODE,Air,6
 Node,163,MECHANICAL_14_Z21_HEATC-FANNODE,Air,5
 Node,164,MECHANICAL_14_Z21_SUPPLYEQUIPMENTOUTLETNODE,Air,3
 Node,165,CONFERENCE_15_Z22_SUPPLYINLET,Air,3
 Node,166,CONFERENCE_15_Z22_COOLC-HEATCNODE,Air,6
 Node,167,CONFERENCE_15_Z22_HEATC-FANNODE,Air,5
 Node,168,CONFERENCE_15_Z22_SUPPLYEQUIPMENTOUTLETNODE,Air,3
 Node,169,STORAGE_15_Z23_SUPPLYINLET,Air,3
 Node,170,STORAGE_15_Z23_COOLC-HEATCNODE,Air,6
 Node,171,STORAGE_15_Z23_HEATC-FANNODE,Air,5
 Node,172,STORAGE_15_Z23_SUPPLYEQUIPMENTOUTLETNODE,Air,3
 Node,173,BREAK_ROOM_16_Z24_SUPPLYINLET,Air,3
 Node,174,BREAK_ROOM_16_Z24_COOLC-HEATCNODE,Air,6
 Node,175,BREAK_ROOM_16_Z24_HEATC-FANNODE,Air,5
 Node,176,BREAK_ROOM_16_Z24_SUPPLYEQUIPMENTOUTLETNODE,Air,3
 Node,177,OFFICE_OPEN_16_Z25_SUPPLYINLET,Air,3
 Node,178,OFFICE_OPEN_16_Z25_COOLC-HEATCNODE,Air,6
 Node,179,OFFICE_OPEN_16_Z25_HEATC-FANNODE,Air,5
 Node,180,OFFICE_OPEN_16_Z25_SUPPLYEQUIPMENTOUTLETNODE,Air,3
 Node,181,BREAK_ROOM_18_Z26_SUPPLYINLET,Air,3
 Node,182,BREAK_ROOM_18_Z26_COOLC-HEATCNODE,Air,6
 Node,183,BREAK_ROOM_18_Z26_HEATC-FANNODE,Air,5
 Node,184,BREAK_ROOM_18_Z26_SUPPLYEQUIPMENTOUTLETNODE,Air,3
 Node,185,OFFICE_PRIVATE_18_Z27_SUPPLYINLET,Air,3
 Node,186,OFFICE_PRIVATE_18_Z27_COOLC-HEATCNODE,Air,6
 Node,187,OFFICE_PRIVATE_18_Z27_HEATC-FANNODE,Air,5
 Node,188,OFFICE_PRIVATE_18_Z27_SUPPLYEQUIPMENTOUTLETNODE,Air,3
 Node,189,CONFERENCE_19_Z28_SUPPLYINLET,Air,3
 Node,190,CONFERENCE_19_Z28_COOLC-HEATCNODE,Air,6
 Node,191,CONFERENCE_19_Z28_HEATC-FANNODE,Air,5
 Node,192,CONFERENCE_19_Z28_SUPPLYEQUIPMENTOUTLETNODE,Air,3
 Node,193,MECHANICAL_19_Z29_SUPPLYINLET,Air,3
 Node,194,MECHANICAL_19_Z29_COOLC-HEATCNODE,Air,6
 Node,195,MECHANICAL_19_Z29_HEATC-FANNODE,Air,5
 Node,196,MECHANICAL_19_Z29_SUPPLYEQUIPMENTOUTLETNODE,Air,3
 Node,197,OFFICE_PRIVATE_19_Z30_SUPPLYINLET,Air,3
 Node,198,OFFICE_PRIVATE_19_Z30_COOLC-HEATCNODE,Air,6
 Node,199,OFFICE_PRIVATE_19_Z30_HEATC-FANNODE,Air,5
 Node,200,OFFICE_PRIVATE_19_Z30_SUPPLYEQUIPMENTOUTLETNODE,Air,3
 Node,201,STORAGE_22_Z31_SUPPLYINLET,Air,3
 Node,202,STORAGE_22_Z31_COOLC-HEATCNODE,Air,6
 Node,203,STORAGE_22_Z31_HEATC-FANNODE,Air,5
 Node,204,STORAGE_22_Z31_SUPPLYEQUIPMENTOUTLETNODE,Air,3
 Node,205,STORAGE_24_Z32_SUPPLYINLET,Air,3
 Node,206,STORAGE_24_Z32_COOLC-HEATCNODE,Air,6
 Node,207,STORAGE_24_Z32_HEATC-FANNODE,Air,5
 Node,208,STORAGE_24_Z32_SUPPLYEQUIPMENTOUTLETNODE,Air,3
 Node,209,BREAK_ROOM_25_Z33_SUPPLYINLET,Air,3
 Node,210,BREAK_ROOM_25_Z33_COOLC-HEATCNODE,Air,6
 Node,211,BREAK_ROOM_25_Z33_HEATC-FANNODE,Air,5
 Node,212,BREAK_ROOM_25_Z33_SUPPLYEQUIPMENTOUTLETNODE,Air,3
 Node,213,OFFICE_PRIVATE_25_Z34_SUPPLYINLET,Air,3
 Node,214,OFFICE_PRIVATE_25_Z34_COOLC-HEATCNODE,Air,6
 Node,215,OFFICE_PRIVATE_25_Z34_HEATC-FANNODE,Air,5
 Node,216,OFFICE_PRIVATE_25_Z34_SUPPLYEQUIPMENTOUTLETNODE,Air,3
 Node,217,STORAGE_25_Z35_SUPPLYINLET,Air,3
 Node,218,STORAGE_25_Z35_COOLC-HEATCNODE,Air,6
 Node,219,STORAGE_25_Z35_HEATC-FANNODE,Air,5
 Node,220,STORAGE_25_Z35_SUPPLYEQUIPMENTOUTLETNODE,Air,3
 Node,221,STORAGE_26_Z36_SUPPLYINLET,Air,3
 Node,222,STORAGE_26_Z36_COOLC-HEATCNODE,Air,6
 Node,223,STORAGE_26_Z36_HEATC-FANNODE,Air,5
 Node,224,STORAGE_26_Z36_SUPPLYEQUIPMENTOUTLETNODE,Air,3
 Node,225,CONFERENCE_27_Z37_SUPPLYINLET,Air,3
 Node,226,CONFERENCE_27_Z37_COOLC-HEATCNODE,Air,6
 Node,227,CONFERENCE_27_Z37_HEATC-FANNODE,Air,5
 Node,228,CONFERENCE_27_Z37_SUPPLYEQUIPMENTOUTLETNODE,Air,3
 Node,229,BREAK_ROOM_27_Z38_SUPPLYINLET,Air,3
 Node,230,BREAK_ROOM_27_Z38_COOLC-HEATCNODE,Air,6
 Node,231,BREAK_ROOM_27_Z38_HEATC-FANNODE,Air,5
 Node,232,BREAK_ROOM_27_Z38_SUPPLYEQUIPMENTOUTLETNODE,Air,3
 Node,233,OFFICE_PRIVATE_28_Z39_SUPPLYINLET,Air,3
 Node,234,OFFICE_PRIVATE_28_Z39_COOLC-HEATCNODE,Air,6
 Node,235,OFFICE_PRIVATE_28_Z39_HEATC-FANNODE,Air,5
 Node,236,OFFICE_PRIVATE_28_Z39_SUPPLYEQUIPMENTOUTLETNODE,Air,3
 Node,237,BREAK_ROOM_29_Z40_SUPPLYINLET,Air,3
 Node,238,BREAK_ROOM_29_Z40_COOLC-HEATCNODE,Air,6
 Node,239,BREAK_ROOM_29_Z40_HEATC-FANNODE,Air,5
 Node,240,BREAK_ROOM_29_Z40_SUPPLYEQUIPMENTOUTLETNODE,Air,3
 Node,241,STORAGE_29_Z41_SUPPLYINLET,Air,3
 Node,242,STORAGE_29_Z41_COOLC-HEATCNODE,Air,6
 Node,243,STORAGE_29_Z41_HEATC-FANNODE,Air,5
 Node,244,STORAGE_29_Z41_SUPPLYEQUIPMENTOUTLETNODE,Air,3
 Node,245,CONFERENCE_30_Z42_SUPPLYINLET,Air,3
 Node,246,CONFERENCE_30_Z42_COOLC-HEATCNODE,Air,6
 Node,247,CONFERENCE_30_Z42_HEATC-FANNODE,Air,5
 Node,248,CONFERENCE_30_Z42_SUPPLYEQUIPMENTOUTLETNODE,Air,3
 Node,249,STORAGE_31_Z43_SUPPLYINLET,Air,3
 Node,250,STORAGE_31_Z43_COOLC-HEATCNODE,Air,6
 Node,251,STORAGE_31_Z43_HEATC-FANNODE,Air,5
 Node,252,STORAGE_31_Z43_SUPPLYEQUIPMENTOUTLETNODE,Air,3
 Node,253,BREAK_ROOM_32_Z44_SUPPLYINLET,Air,3
 Node,254,BREAK_ROOM_32_Z44_COOLC-HEATCNODE,Air,6
 Node,255,BREAK_ROOM_32_Z44_HEATC-FANNODE,Air,5
 Node,256,BREAK_ROOM_32_Z44_SUPPLYEQUIPMENTOUTLETNODE,Air,3
 Node,257,MECHANICAL_32_Z45_SUPPLYINLET,Air,3
 Node,258,MECHANICAL_32_Z45_COOLC-HEATCNODE,Air,6
 Node,259,MECHANICAL_32_Z45_HEATC-FANNODE,Air,5
 Node,260,MECHANICAL_32_Z45_SUPPLYEQUIPMENTOUTLETNODE,Air,3
 Node,261,STORAGE_32_Z46_SUPPLYINLET,Air,3
 Node,262,STORAGE_32_Z46_COOLC-HEATCNODE,Air,6
 Node,263,STORAGE_32_Z46_HEATC-FANNODE,Air,5
 Node,264,STORAGE_32_Z46_SUPPLYEQUIPMENTOUTLETNODE,Air,3
 Node,265,OFFICE_PRIVATE_33_Z47_SUPPLYINLET,Air,3
 Node,266,OFFICE_PRIVATE_33_Z47_COOLC-HEATCNODE,Air,6
 Node,267,OFFICE_PRIVATE_33_Z47_HEATC-FANNODE,Air,5
 Node,268,OFFICE_PRIVATE_33_Z47_SUPPLYEQUIPMENTOUTLETNODE,Air,3
 Node,269,OFFICE_PRIVATE_34_Z48_SUPPLYINLET,Air,3
 Node,270,OFFICE_PRIVATE_34_Z48_COOLC-HEATCNODE,Air,6
 Node,271,OFFICE_PRIVATE_34_Z48_HEATC-FANNODE,Air,5
 Node,272,OFFICE_PRIVATE_34_Z48_SUPPLYEQUIPMENTOUTLETNODE,Air,3
 Node,273,STORAGE_34_Z49_SUPPLYINLET,Air,3
 Node,274,STORAGE_34_Z49_COOLC-HEATCNODE,Air,6
 Node,275,STORAGE_34_Z49_HEATC-FANNODE,Air,5
 Node,276,STORAGE_34_Z49_SUPPLYEQUIPMENTOUTLETNODE,Air,3
 Node,277,MECHANICAL_35_Z50_SUPPLYINLET,Air,3
 Node,278,MECHANICAL_35_Z50_COOLC-HEATCNODE,Air,6
 Node,279,MECHANICAL_35_Z50_HEATC-FANNODE,Air,5
 Node,280,MECHANICAL_35_Z50_SUPPLYEQUIPMENTOUTLETNODE,Air,3
 Node,281,CONFERENCE_36_Z51_SUPPLYINLET,Air,3
 Node,282,CONFERENCE_36_Z51_COOLC-HEATCNODE,Air,6
 Node,283,CONFERENCE_36_Z51_HEATC-FANNODE,Air,5
 Node,284,CONFERENCE_36_Z51_SUPPLYEQUIPMENTOUTLETNODE,Air,3
 Node,285,OFFICE_PRIVATE_36_Z52_SUPPLYINLET,Air,3
 Node,286,OFFICE_PRIVATE_36_Z52_COOLC-HEATCNODE,Air,6
 Node,287,OFFICE_PRIVATE_36_Z52_HEATC-FANNODE,Air,5
 Node,288,OFFICE_PRIVATE_36_Z52_SUPPLYEQUIPMENTOUTLETNODE,Air,3
 Node,289,OFFICE_PRIVATE_37_Z53_SUPPLYINLET,Air,3
 Node,290,OFFICE_PRIVATE_37_Z53_COOLC-HEATCNODE,Air,6
 Node,291,OFFICE_PRIVATE_37_Z53_HEATC-FANNODE,Air,5
 Node,292,OFFICE_PRIVATE_37_Z53_SUPPLYEQUIPMENTOUTLETNODE,Air,3
 Node,293,STORAGE_38_Z54_SUPPLYINLET,Air,3
 Node,294,STORAGE_38_Z54_COOLC-HEATCNODE,Air,6
 Node,295,STORAGE_38_Z54_HEATC-FANNODE,Air,5
 Node,296,STORAGE_38_Z54_SUPPLYEQUIPMENTOUTLETNODE,Air,3
 Node,297,CONFERENCE_39_Z55_SUPPLYINLET,Air,3
 Node,298,CONFERENCE_39_Z55_COOLC-HEATCNODE,Air,6
 Node,299,CONFERENCE_39_Z55_HEATC-FANNODE,Air,5
 Node,300,CONFERENCE_39_Z55_SUPPLYEQUIPMENTOUTLETNODE,Air,3
 Node,301,BREAK_ROOM_40_Z56_SUPPLYINLET,Air,3
 Node,302,BREAK_ROOM_40_Z56_COOLC-HEATCNODE,Air,6
 Node,303,BREAK_ROOM_40_Z56_HEATC-FANNODE,Air,5
 Node,304,BREAK_ROOM_40_Z56_SUPPLYEQUIPMENTOUTLETNODE,Air,3
 Node,305,MECHANICAL_40_Z57_SUPPLYINLET,Air,3
 Node,306,MECHANICAL_40_Z57_COOLC-HEATCNODE,Air,6
 Node,307,MECHANICAL_40_Z57_HEATC-FANNODE,Air,5
 Node,308,MECHANICAL_40_Z57_SUPPLYEQUIPMENTOUTLETNODE,Air,3
 Node,309,MECHANICAL_41_Z58_SUPPLYINLET,Air,3
 Node,310,MECHANICAL_41_Z58_COOLC-HEATCNODE,Air,6
 Node,311,MECHANICAL_41_Z58_HEATC-FANNODE,Air,5
 Node,312,MECHANICAL_41_Z58_SUPPLYEQUIPMENTOUTLETNODE,Air,3
 Node,313,OFFICE_PRIVATE_41_Z59_SUPPLYINLET,Air,3
 Node,314,OFFICE_PRIVATE_41_Z59_COOLC-HEATCNODE,Air,6
 Node,315,OFFICE_PRIVATE_41_Z59_HEATC-FANNODE,Air,5
 Node,316,OFFICE_PRIVATE_41_Z59_SUPPLYEQUIPMENTOUTLETNODE,Air,3
 Node,317,BREAK_ROOM_42_Z60_SUPPLYINLET,Air,3
 Node,318,BREAK_ROOM_42_Z60_COOLC-HEATCNODE,Air,6
 Node,319,BREAK_ROOM_42_Z60_HEATC-FANNODE,Air,5
 Node,320,BREAK_ROOM_42_Z60_SUPPLYEQUIPMENTOUTLETNODE,Air,3
 Node,321,STORAGE_42_Z61_SUPPLYINLET,Air,3
 Node,322,STORAGE_42_Z61_COOLC-HEATCNODE,Air,6
 Node,323,STORAGE_42_Z61_HEATC-FANNODE,Air,5
 Node,324,STORAGE_42_Z61_SUPPLYEQUIPMENTOUTLETNODE,Air,3
 Node,325,LOBBY_43_Z62_SUPPLYINLET,Air,3
 Node,326,LOBBY_43_Z62_COOLC-HEATCNODE,Air,6
 Node,327,LOBBY_43_Z62_HEATC-FANNODE,Air,5
 Node,328,LOBBY_43_Z62_SUPPLYEQUIPMENTOUTLETNODE,Air,3
 Node,329,STORAGE_43_Z63_SUPPLYINLET,Air,3
 Node,330,STORAGE_43_Z63_COOLC-HEATCNODE,Air,6
 Node,331,STORAGE_43_Z63_HEATC-FANNODE,Air,5
 Node,332,STORAGE_43_Z63_SUPPLYEQUIPMENTOUTLETNODE,Air,3
 Node,333,BREAK_ROOM_44_Z64_SUPPLYINLET,Air,3
 Node,334,BREAK_ROOM_44_Z64_COOLC-HEATCNODE,Air,6
 Node,335,BREAK_ROOM_44_Z64_HEATC-FANNODE,Air,5
 Node,336,BREAK_ROOM_44_Z64_SUPPLYEQUIPMENTOUTLETNODE,Air,3
 Node,337,OFFICE_PRIVATE_44_Z65_SUPPLYINLET,Air,3
 Node,338,OFFICE_PRIVATE_44_Z65_COOLC-HEATCNODE,Air,6
 Node,339,OFFICE_PRIVATE_44_Z65_HEATC-FANNODE,Air,5
 Node,340,OFFICE_PRIVATE_44_Z65_SUPPLYEQUIPMENTOUTLETNODE,Air,3
 Node,341,CONFERENCE_45_Z66_SUPPLYINLET,Air,3
 Node,342,CONFERENCE_45_Z66_COOLC-HEATCNODE,Air,6
 Node,343,CONFERENCE_45_Z66_HEATC-FANNODE,Air,5
 Node,344,CONFERENCE_45_Z66_SUPPLYEQUIPMENTOUTLETNODE,Air,3
 Node,345,OFFICE_PRIVATE_45_Z67_SUPPLYINLET,Air,3
 Node,346,OFFICE_PRIVATE_45_Z67_COOLC-HEATCNODE,Air,6
 Node,347,OFFICE_PRIVATE_45_Z67_HEATC-FANNODE,Air,5
 Node,348,OFFICE_PRIVATE_45_Z67_SUPPLYEQUIPMENTOUTLETNODE,Air,3
 Node,349,BREAK_ROOM_46_Z68_SUPPLYINLET,Air,3
 Node,350,BREAK_ROOM_46_Z68_COOLC-HEATCNODE,Air,6
 Node,351,BREAK_ROOM_46_Z68_HEATC-FANNODE,Air,5
 Node,352,BREAK_ROOM_46_Z68_SUPPLYEQUIPMENTOUTLETNODE,Air,3
 Node,353,OFFICE_PRIVATE_47_Z69_SUPPLYINLET,Air,3
 Node,354,OFFICE_PRIVATE_47_Z69_COOLC-HEATCNODE,Air,6
 Node,355,OFFICE_PRIVATE_47_Z69_HEATC-FANNODE,Air,5
 Node,356,OFFICE_PRIVATE_47_Z69_SUPPLYEQUIPMENTOUTLETNODE,Air,3
 Node,357,BREAK_ROOM_48_Z70_SUPPLYINLET,Air,3
 Node,358,BREAK_ROOM_48_Z70_COOLC-HEATCNODE,Air,6
 Node,359,BREAK_ROOM_48_Z70_HEATC-FANNODE,Air,5
 Node,360,BREAK_ROOM_48_Z70_SUPPLYEQUIPMENTOUTLETNODE,Air,3
 Node,361,STORAGE_48_Z71_SUPPLYINLET,Air,3
 Node,362,STORAGE_48_Z71_COOLC-HEATCNODE,Air,6
 Node,363,STORAGE_48_Z71_HEATC-FANNODE,Air,5
 Node,364,STORAGE_48_Z71_SUPPLYEQUIPMENTOUTLETNODE,Air,3
 Node,365,LOBBY_51_Z72_SUPPLYINLET,Air,3
 Node,366,LOBBY_51_Z72_COOLC-HEATCNODE,Air,6
 Node,367,LOBBY_51_Z72_HEATC-FANNODE,Air,5
 Node,368,LOBBY_51_Z72_SUPPLYEQUIPMENTOUTLETNODE,Air,3
 Node,369,CONFERENCE_51_Z73_SUPPLYINLET,Air,3
 Node,370,CONFERENCE_51_Z73_COOLC-HEATCNODE,Air,6
 Node,371,CONFERENCE_51_Z73_HEATC-FANNODE,Air,5
 Node,372,CONFERENCE_51_Z73_SUPPLYEQUIPMENTOUTLETNODE,Air,3
 Node,373,MECHANICAL_51_Z74_SUPPLYINLET,Air,3
 Node,374,MECHANICAL_51_Z74_COOLC-HEATCNODE,Air,6
 Node,375,MECHANICAL_51_Z74_HEATC-FANNODE,Air,5
 Node,376,MECHANICAL_51_Z74_SUPPLYEQUIPMENTOUTLETNODE,Air,3
 Node,377,OFFICE_PRIVATE_51_Z75_SUPPLYINLET,Air,3
 Node,378,OFFICE_PRIVATE_51_Z75_COOLC-HEATCNODE,Air,6
 Node,379,OFFICE_PRIVATE_51_Z75_HEATC-FANNODE,Air,5
 Node,380,OFFICE_PRIVATE_51_Z75_SUPPLYEQUIPMENTOUTLETNODE,Air,3
 Node,381,MECHANICAL_52_Z76_SUPPLYINLET,Air,3
 Node,382,MECHANICAL_52_Z76_COOLC-HEATCNODE,Air,6
 Node,383,MECHANICAL_52_Z76_HEATC-FANNODE,Air,5
 Node,384,MECHANICAL_52_Z76_SUPPLYEQUIPMENTOUTLETNODE,Air,3
 Node,385,OFFICE_PRIVATE_52_Z77_SUPPLYINLET,Air,3
 Node,386,OFFICE_PRIVATE_52_Z77_COOLC-HEATCNODE,Air,6
 Node,387,OFFICE_PRIVATE_52_Z77_HEATC-FANNODE,Air,5
 Node,388,OFFICE_PRIVATE_52_Z77_SUPPLYEQUIPMENTOUTLETNODE,Air,3
 Node,389,LOBBY_54_Z78_SUPPLYINLET,Air,3
 Node,390,LOBBY_54_Z78_COOLC-HEATCNODE,Air,6
 Node,391,LOBBY_54_Z78_HEATC-FANNODE,Air,5
 Node,392,LOBBY_54_Z78_SUPPLYEQUIPMENTOUTLETNODE,Air,3
 Node,393,BREAK_ROOM_54_Z79_SUPPLYINLET,Air,3
 Node,394,BREAK_ROOM_54_Z79_COOLC-HEATCNODE,Air,6
 Node,395,BREAK_ROOM_54_Z79_HEATC-FANNODE,Air,5
 Node,396,BREAK_ROOM_54_Z79_SUPPLYEQUIPMENTOUTLETNODE,Air,3
 Node,397,OFFICE_OPEN_54_Z80_SUPPLYINLET,Air,3
 Node,398,OFFICE_OPEN_54_Z80_COOLC-HEATCNODE,Air,6
 Node,399,OFFICE_OPEN_54_Z80_HEATC-FANNODE,Air,5
 Node,400,OFFICE_OPEN_54_Z80_SUPPLYEQUIPMENTOUTLETNODE,Air,3
 Node,401,MECHANICAL_0 AIR NODE,Air,0
 Node,402,MECHANICAL_0_Z1_RETURNAIR,Air,1
 Node,403,OFFICE_PRIVATE_0 AIR NODE,Air,0
 Node,404,OFFICE_PRIVATE_0_Z2_RETURNAIR,Air,1
 Node,405,LOBBY_1 AIR NODE,Air,0
 Node,406,LOBBY_1_Z3_RETURNAIR,Air,1
 Node,407,OFFICE_PRIVATE_1 AIR NODE,Air,0
 Node,408,OFFICE_PRIVATE_1_Z4_RETURNAIR,Air,1
 Node,409,BREAK_ROOM_2 AIR NODE,Air,0
 Node,410,BREAK_ROOM_2_Z5_RETURNAIR,Air,1
 Node,411,OFFICE_PRIVATE_2 AIR NODE,Air,0
 Node,412,OFFICE_PRIVATE_2_Z6_RETURNAIR,Air,1
 Node,413,STORAGE_2 AIR NODE,Air,0
 Node,414,STORAGE_2_Z7_RETURNAIR,Air,1
 Node,415,MECHANICAL_3 AIR NODE,Air,0
 Node,416,MECHANICAL_3_Z8_RETURNAIR,Air,1
 Node,417,OFFICE_PRIVATE_3 AIR NODE,Air,0
 Node,418,OFFICE_PRIVATE_3_Z9_RETURNAIR,Air,1
 Node,419,OFFICE_PRIVATE_4 AIR NODE,Air,0
 Node,420,OFFICE_PRIVATE_4_Z10_RETURNAIR,Air,1
 Node,421,STORAGE_4 AIR NODE,Air,0
 Node,422,STORAGE_4_Z11_RETURNAIR,Air,1
 Node,423,BREAK_ROOM_6 AIR NODE,Air,0
 Node,424,BREAK_ROOM_6_Z12_RETURNAIR,Air,1
 Node,425,BREAK_ROOM_8 AIR NODE,Air,0
 Node,426,BREAK_ROOM_8_Z13_RETURNAIR,Air,1
 Node,427,STORAGE_8 AIR NODE,Air,0
 Node,428,STORAGE_8_Z14_RETURNAIR,Air,1
 Node,429,BREAK_ROOM_11 AIR NODE,Air,0
 Node,430,BREAK_ROOM_11_Z15_RETURNAIR,Air,1
 Node,431,CONFERENCE_13 AIR NODE,Air,0
 Node,432,CONFERENCE_13_Z16_RETURNAIR,Air,1
 Node,433,STORAGE_13 AIR NODE,Air,0
 Node,434,STORAGE_13_Z17_RETURNAIR,Air,1
 Node,435,LOBBY_14 AIR NODE,Air,0
 Node,436,LOBBY_14_Z18_RETURNAIR,Air,1
 Node,437,CONFERENCE_14 AIR NODE,Air,0
 Node,438,CONFERENCE_14_Z19_RETURNAIR,Air,1
 Node,439,BREAK_ROOM_14 AIR NODE,Air,0
 Node,440,BREAK_ROOM_14_Z20_RETURNAIR,Air,1
 Node,441,MECHANICAL_14 AIR NODE,Air,0
 Node,442,MECHANICAL_14_Z21_RETURNAIR,Air,1
 Node,443,CONFERENCE_15 AIR NODE,Air,0
 Node,444,CONFERENCE_15_Z22_RETURNAIR,Air,1
 Node,445,STORAGE_15 AIR NODE,Air,0
 Node,446,STORAGE_15_Z23_RETURNAIR,Air,1
 Node,447,BREAK_ROOM_16 AIR NODE,Air,0
 Node,448,BREAK_ROOM_16_Z24_RETURNAIR,Air,1
 Node,449,OFFICE_OPEN_16 AIR NODE,Air,0
 Node,450,OFFICE_OPEN_16_Z25_RETURNAIR,Air,1
 Node,451,BREAK_ROOM_18 AIR NODE,Air,0
 Node,452,BREAK_ROOM_18_Z26_RETURNAIR,Air,1
 Node,453,OFFICE_PRIVATE_18 AIR NODE,Air,0
 Node,454,OFFICE_PRIVATE_18_Z27_RETURNAIR,Air,1
 Node,455,CONFERENCE_19 AIR NODE,Air,0
 Node,456,CONFERENCE_19_Z28_RETURNAIR,Air,1
 Node,457,MECHANICAL_19 AIR NODE,Air,0
 Node,458,MECHANICAL_19_Z29_RETURNAIR,Air,1
 Node,459,OFFICE_PRIVATE_19 AIR NODE,Air,0
 Node,460,OFFICE_PRIVATE_19_Z30_RETURNAIR,Air,1
 Node,461,STORAGE_22 AIR NODE,Air,0
 Node,462,STORAGE_22_Z31_RETURNAIR,Air,1
 Node,463,STORAGE_24 AIR NODE,Air,0
 Node,464,STORAGE_24_Z32_RETURNAIR,Air,1
 Node,465,BREAK_ROOM_25 AIR NODE,Air,0
 Node,466,BREAK_ROOM_25_Z33_RETURNAIR,Air,1
 Node,467,OFFICE_PRIVATE_25 AIR NODE,Air,0
 Node,468,OFFICE_PRIVATE_25_Z34_RETURNAIR,Air,1
 Node,469,STORAGE_25 AIR NODE,Air,0
 Node,470,STORAGE_25_Z35_RETURNAIR,Air,1
 Node,471,STORAGE_26 AIR NODE,Air,0
 Node,472,STORAGE_26_Z36_RETURNAIR,Air,1
 Node,473,CONFERENCE_27 AIR NODE,Air,0
 Node,474,CONFERENCE_27_Z37_RETURNAIR,Air,1
 Node,475,BREAK_ROOM_27 AIR NODE,Air,0
 Node,476,BREAK_ROOM_27_Z38_RETURNAIR,Air,1
 Node,477,OFFICE_PRIVATE_28 AIR NODE,Air,0
 Node,478,OFFICE_PRIVATE_28_Z39_RETURNAIR,Air,1
 Node,479,BREAK_ROOM_29 AIR NODE,Air,0
 Node,480,BREAK_ROOM_29_Z40_RETURNAIR,Air,1
 Node,481,STORAGE_29 AIR NODE,Air,0
 Node,482,STORAGE_29_Z41_RETURNAIR,Air,1
 Node,483,CONFERENCE_30 AIR NODE,Air,0
 Node,484,CONFERENCE_30_Z42_RETURNAIR,Air,1
 Node,485,STORAGE_31 AIR NODE,Air,0
 Node,486,STORAGE_31_Z43_RETURNAIR,Air,1
 Node,487,BREAK_ROOM_32 AIR NODE,Air,0
 Node,488,BREAK_ROOM_32_Z44_RETURNAIR,Air,1
 Node,489,MECHANICAL_32 AIR NODE,Air,0
 Node,490,MECHANICAL_32_Z45_RETURNAIR,Air,1
 Node,491,STORAGE_32 AIR NODE,Air,0
 Node,492,STORAGE_32_Z46_RETURNAIR,Air,1
 Node,493,OFFICE_PRIVATE_33 AIR NODE,Air,0
 Node,494,OFFICE_PRIVATE_33_Z47_RETURNAIR,Air,1
 Node,495,OFFICE_PRIVATE_34 AIR NODE,Air,0
 Node,496,OFFICE_PRIVATE_34_Z48_RETURNAIR,Air,1
 Node,497,STORAGE_34 AIR NODE,Air,0
 Node,498,STORAGE_34_Z49_RETURNAIR,Air,1
 Node,499,MECHANICAL_35 AIR NODE,Air,0
 Node,500,MECHANICAL_35_Z50_RETURNAIR,Air,1
 Node,501,CONFERENCE_36 AIR NODE,Air,0
 Node,502,CONFERENCE_36_Z51_RETURNAIR,Air,1
 Node,503,OFFICE_PRIVATE_36 AIR NODE,Air,0
 Node,504,OFFICE_PRIVATE_36_Z52_RETURNAIR,Air,1
 Node,505,OFFICE_PRIVATE_37 AIR NODE,Air,0
 Node,506,OFFICE_PRIVATE_37_Z53_RETURNAIR,Air,1
 Node,507,STORAGE_38 AIR NODE,Air,0
 Node,508,STORAGE_38_Z54_RETURNAIR,Air,1
 Node,509,CONFERENCE_39 AIR NODE,Air,0
 Node,510,CONFERENCE_39_Z55_RETURNAIR,Air,1
 Node,511,BREAK_ROOM_40 AIR NODE,Air,0
 Node,512,BREAK_ROOM_40_Z56_RETURNAIR,Air,1
 Node,513,MECHANICAL_40 AIR NODE,Air,0
 Node,514,MECHANICAL_40_Z57_RETURNAIR,Air,1
 Node,515,MECHANICAL_41 AIR NODE,Air,0
 Node,516,MECHANICAL_41_Z58_RETURNAIR,Air,1
 Node,517,OFFICE_PRIVATE_41 AIR NODE,Air,0
 Node,518,OFFICE_PRIVATE_41_Z59_RETURNAIR,Air,1
 Node,519,BREAK_ROOM_42 AIR NODE,Air,0
 Node,520,BREAK_ROOM_42_Z60_RETURNAIR,Air,1
 Node,521,STORAGE_42 AIR NODE,Air,0
 Node,522,STORAGE_42_Z61_RETURNAIR,Air,1
 Node,523,LOBBY_43 AIR NODE,Air,0
 Node,524,LOBBY_43_Z62_RETURNAIR,Air,1
 Node,525,STORAGE_43 AIR NODE,Air,0
 Node,526,STORAGE_43_Z63_RETURNAIR,Air,1
 Node,527,BREAK_ROOM_44 AIR NODE,Air,0
 Node,528,BREAK_ROOM_44_Z64_RETURNAIR,Air,1
 Node,529,OFFICE_PRIVATE_44 AIR NODE,Air,0
 Node,530,OFFICE_PRIVATE_44_Z65_RETURNAIR,Air,1
 Node,531,CONFERENCE_45 AIR NODE,Air,0
 Node,532,CONFERENCE_45_Z66_RETURNAIR,Air,1
 Node,533,OFFICE_PRIVATE_45 AIR NODE,Air,0
 Node,534,OFFICE_PRIVATE_45_Z67_RETURNAIR,Air,1
 Node,535,BREAK_ROOM_46 AIR NODE,Air,0
 Node,536,BREAK_ROOM_46_Z68_RETURNAIR,Air,1
 Node,537,OFFICE_PRIVATE_47 AIR NODE,Air,0
 Node,538,OFFICE_PRIVATE_47_Z69_RETURNAIR,Air,1
 Node,539,BREAK_ROOM_48 AIR NODE,Air,0
 Node,540,BREAK_ROOM_48_Z70_RETURNAIR,Air,1
 Node,541,STORAGE_48 AIR NODE,Air,0
 Node,542,STORAGE_48_Z71_RETURNAIR,Air,1
 Node,543,LOBBY_51 AIR NODE,Air,0
 Node,544,LOBBY_51_Z72_RETURNAIR,Air,1
 Node,545,CONFERENCE_51 AIR NODE,Air,0
 Node,546,CONFERENCE_51_Z73_RETURNAIR,Air,1
 Node,547,MECHANICAL_51 AIR NODE,Air,0
 Node,548,MECHANICAL_51_Z74_RETURNAIR,Air,1
 Node,549,OFFICE_PRIVATE_51 AIR NODE,Air,0
 Node,550,OFFICE_PRIVATE_51_Z75_RETURNAIR,Air,1
 Node,551,MECHANICAL_52 AIR NODE,Air,0
 Node,552,MECHANICAL_52_Z76_RETURNAIR,Air,1
 Node,553,OFFICE_PRIVATE_52 AIR NODE,Air,0
 Node,554,OFFICE_PRIVATE_52_Z77_RETURNAIR,Air,1
 Node,555,LOBBY_54 AIR NODE,Air,0
 Node,556,LOBBY_54_Z78_RETURNAIR,Air,1
 Node,557,BREAK_ROOM_54 AIR NODE,Air,0
 Node,558,BREAK_ROOM_54_Z79_RETURNAIR,Air,1
 Node,559,OFFICE_OPEN_54 AIR NODE,Air,0
 Node,560,OFFICE_OPEN_54_Z80_RETURNAIR,Air,1
 Node,561,MECHANICAL_0_Z1_ZONEEQUIPMENTINLET,Air,2
 Node,562,OFFICE_PRIVATE_0_Z2_ZONEEQUIPMENTINLET,Air,2
 Node,563,LOBBY_1_Z3_ZONEEQUIPMENTINLET,Air,2
 Node,564,OFFICE_PRIVATE_1_Z4_ZONEEQUIPMENTINLET,Air,2
 Node,565,BREAK_ROOM_2_Z5_ZONEEQUIPMENTINLET,Air,2
 Node,566,OFFICE_PRIVATE_2_Z6_ZONEEQUIPMENTINLET,Air,2
 Node,567,STORAGE_2_Z7_ZONEEQUIPMENTINLET,Air,2
 Node,568,MECHANICAL_3_Z8_ZONEEQUIPMENTINLET,Air,2
 Node,569,OFFICE_PRIVATE_3_Z9_ZONEEQUIPMENTINLET,Air,2
 Node,570,OFFICE_PRIVATE_4_Z10_ZONEEQUIPMENTINLET,Air,2
 Node,571,STORAGE_4_Z11_ZONEEQUIPMENTINLET,Air,2
 Node,572,BREAK_ROOM_6_Z12_ZONEEQUIPMENTINLET,Air,2
 Node,573,BREAK_ROOM_8_Z13_ZONEEQUIPMENTINLET,Air,2
 Node,574,STORAGE_8_Z14_ZONEEQUIPMENTINLET,Air,2
 Node,575,BREAK_ROOM_11_Z15_ZONEEQUIPMENTINLET,Air,2
 Node,576,CONFERENCE_13_Z16_ZONEEQUIPMENTINLET,Air,2
 Node,577,STORAGE_13_Z17_ZONEEQUIPMENTINLET,Air,2
 Node,578,LOBBY_14_Z18_ZONEEQUIPMENTINLET,Air,2
 Node,579,CONFERENCE_14_Z19_ZONEEQUIPMENTINLET,Air,2
 Node,580,BREAK_ROOM_14_Z20_ZONEEQUIPMENTINLET,Air,2
 Node,581,MECHANICAL_14_Z21_ZONEEQUIPMENTINLET,Air,2
 Node,582,CONFERENCE_15_Z22_ZONEEQUIPMENTINLET,Air,2
 Node,583,STORAGE_15_Z23_ZONEEQUIPMENTINLET,Air,2
 Node,584,BREAK_ROOM_16_Z24_ZONEEQUIPMENTINLET,Air,2
 Node,585,OFFICE_OPEN_16_Z25_ZONEEQUIPMENTINLET,Air,2
 Node,586,BREAK_ROOM_18_Z26_ZONEEQUIPMENTINLET,Air,2
 Node,587,OFFICE_PRIVATE_18_Z27_ZONEEQUIPMENTINLET,Air,2
 Node,588,CONFERENCE_19_Z28_ZONEEQUIPMENTINLET,Air,2
 Node,589,MECHANICAL_19_Z29_ZONEEQUIPMENTINLET,Air,2
 Node,590,OFFICE_PRIVATE_19_Z30_ZONEEQUIPMENTINLET,Air,2
 Node,591,STORAGE_22_Z31_ZONEEQUIPMENTINLET,Air,2
 Node,592,STORAGE_24_Z32_ZONEEQUIPMENTINLET,Air,2
 Node,593,BREAK_ROOM_25_Z33_ZONEEQUIPMENTINLET,Air,2
 Node,594,OFFICE_PRIVATE_25_Z34_ZONEEQUIPMENTINLET,Air,2
 Node,595,STORAGE_25_Z35_ZONEEQUIPMENTINLET,Air,2
 Node,596,STORAGE_26_Z36_ZONEEQUIPMENTINLET,Air,2
 Node,597,CONFERENCE_27_Z37_ZONEEQUIPMENTINLET,Air,2
 Node,598,BREAK_ROOM_27_Z38_ZONEEQUIPMENTINLET,Air,2
 Node,599,OFFICE_PRIVATE_28_Z39_ZONEEQUIPMENTINLET,Air,2
 Node,600,BREAK_ROOM_29_Z40_ZONEEQUIPMENTINLET,Air,2
 Node,601,STORAGE_29_Z41_ZONEEQUIPMENTINLET,Air,2
 Node,602,CONFERENCE_30_Z42_ZONEEQUIPMENTINLET,Air,2
 Node,603,STORAGE_31_Z43_ZONEEQUIPMENTINLET,Air,2
 Node,604,BREAK_ROOM_32_Z44_ZONEEQUIPMENTINLET,Air,2
 Node,605,MECHANICAL_32_Z45_ZONEEQUIPMENTINLET,Air,2
 Node,606,STORAGE_32_Z46_ZONEEQUIPMENTINLET,Air,2
 Node,607,OFFICE_PRIVATE_33_Z47_ZONEEQUIPMENTINLET,Air,2
 Node,608,OFFICE_PRIVATE_34_Z48_ZONEEQUIPMENTINLET,Air,2
 Node,609,STORAGE_34_Z49_ZONEEQUIPMENTINLET,Air,2
 Node,610,MECHANICAL_35_Z50_ZONEEQUIPMENTINLET,Air,2
 Node,611,CONFERENCE_36_Z51_ZONEEQUIPMENTINLET,Air,2
 Node,612,OFFICE_PRIVATE_36_Z52_ZONEEQUIPMENTINLET,Air,2
 Node,613,OFFICE_PRIVATE_37_Z53_ZONEEQUIPMENTINLET,Air,2
 Node,614,STORAGE_38_Z54_ZONEEQUIPMENTINLET,Air,2
 Node,615,CONFERENCE_39_Z55_ZONEEQUIPMENTINLET,Air,2
 Node,616,BREAK_ROOM_40_Z56_ZONEEQUIPMENTINLET,Air,2
 Node,617,MECHANICAL_40_Z57_ZONEEQUIPMENTINLET,Air,2
 Node,618,MECHANICAL_41_Z58_ZONEEQUIPMENTINLET,Air,2
 Node,619,OFFICE_PRIVATE_41_Z59_ZONEEQUIPMENTINLET,Air,2
 Node,620,BREAK_ROOM_42_Z60_ZONEEQUIPMENTINLET,Air,2
 Node,621,STORAGE_42_Z61_ZONEEQUIPMENTINLET,Air,2
 Node,622,LOBBY_43_Z62_ZONEEQUIPMENTINLET,Air,2
 Node,623,STORAGE_43_Z63_ZONEEQUIPMENTINLET,Air,2
 Node,624,BREAK_ROOM_44_Z64_ZONEEQUIPMENTINLET,Air,2
 Node,625,OFFICE_PRIVATE_44_Z65_ZONEEQUIPMENTINLET,Air,2
 Node,626,CONFERENCE_45_Z66_ZONEEQUIPMENTINLET,Air,2
 Node,627,OFFICE_PRIVATE_45_Z67_ZONEEQUIPMENTINLET,Air,2
 Node,628,BREAK_ROOM_46_Z68_ZONEEQUIPMENTINLET,Air,2
 Node,629,OFFICE_PRIVATE_47_Z69_ZONEEQUIPMENTINLET,Air,2
 Node,630,BREAK_ROOM_48_Z70_ZONEEQUIPMENTINLET,Air,2
 Node,631,STORAGE_48_Z71_ZONEEQUIPMENTINLET,Air,2
 Node,632,LOBBY_51_Z72_ZONEEQUIPMENTINLET,Air,2
 Node,633,CONFERENCE_51_Z73_ZONEEQUIPMENTINLET,Air,2
 Node,634,MECHANICAL_51_Z74_ZONEEQUIPMENTINLET,Air,2
 Node,635,OFFICE_PRIVATE_51_Z75_ZONEEQUIPMENTINLET,Air,2
 Node,636,MECHANICAL_52_Z76_ZONEEQUIPMENTINLET,Air,2
 Node,637,OFFICE_PRIVATE_52_Z77_ZONEEQUIPMENTINLET,Air,2
 Node,638,LOBBY_54_Z78_ZONEEQUIPMENTINLET,Air,2
 Node,639,BREAK_ROOM_54_Z79_ZONEEQUIPMENTINLET,Air,2
 Node,640,OFFICE_OPEN_54_Z80_ZONEEQUIPMENTINLET,Air,2
 Node,641,MECHANICAL_0_Z1_ZONEEQUIPMENTOUTLETNODE,Air,2
 Node,642,OFFICE_PRIVATE_0_Z2_ZONEEQUIPMENTOUTLETNODE,Air,2
 Node,643,LOBBY_1_Z3_ZONEEQUIPMENTOUTLETNODE,Air,2
 Node,644,OFFICE_PRIVATE_1_Z4_ZONEEQUIPMENTOUTLETNODE,Air,2
 Node,645,BREAK_ROOM_2_Z5_ZONEEQUIPMENTOUTLETNODE,Air,2
 Node,646,OFFICE_PRIVATE_2_Z6_ZONEEQUIPMENTOUTLETNODE,Air,2
 Node,647,STORAGE_2_Z7_ZONEEQUIPMENTOUTLETNODE,Air,2
 Node,648,MECHANICAL_3_Z8_ZONEEQUIPMENTOUTLETNODE,Air,2
 Node,649,OFFICE_PRIVATE_3_Z9_ZONEEQUIPMENTOUTLETNODE,Air,2
 Node,650,OFFICE_PRIVATE_4_Z10_ZONEEQUIPMENTOUTLETNODE,Air,2
 Node,651,STORAGE_4_Z11_ZONEEQUIPMENTOUTLETNODE,Air,2
 Node,652,BREAK_ROOM_6_Z12_ZONEEQUIPMENTOUTLETNODE,Air,2
 Node,653,BREAK_ROOM_8_Z13_ZONEEQUIPMENTOUTLETNODE,Air,2
 Node,654,STORAGE_8_Z14_ZONEEQUIPMENTOUTLETNODE,Air,2
 Node,655,BREAK_ROOM_11_Z15_ZONEEQUIPMENTOUTLETNODE,Air,2
 Node,656,CONFERENCE_13_Z16_ZONEEQUIPMENTOUTLETNODE,Air,2
 Node,657,STORAGE_13_Z17_ZONEEQUIPMENTOUTLETNODE,Air,2
 Node,658,LOBBY_14_Z18_ZONEEQUIPMENTOUTLETNODE,Air,2
 Node,659,CONFERENCE_14_Z19_ZONEEQUIPMENTOUTLETNODE,Air,2
 Node,660,BREAK_ROOM_14_Z20_ZONEEQUIPMENTOUTLETNODE,Air,2
 Node,661,MECHANICAL_14_Z21_ZONEEQUIPMENTOUTLETNODE,Air,2
 Node,662,CONFERENCE_15_Z22_ZONEEQUIPMENTOUTLETNODE,Air,2
 Node,663,STORAGE_15_Z23_ZONEEQUIPMENTOUTLETNODE,Air,2
 Node,664,BREAK_ROOM_16_Z24_ZONEEQUIPMENTOUTLETNODE,Air,2
 Node,665,OFFICE_OPEN_16_Z25_ZONEEQUIPMENTOUTLETNODE,Air,2
 Node,666,BREAK_ROOM_18_Z26_ZONEEQUIPMENTOUTLETNODE,Air,2
 Node,667,OFFICE_PRIVATE_18_Z27_ZONEEQUIPMENTOUTLETNODE,Air,2
 Node,668,CONFERENCE_19_Z28_ZONEEQUIPMENTOUTLETNODE,Air,2
 Node,669,MECHANICAL_19_Z29_ZONEEQUIPMENTOUTLETNODE,Air,2
 Node,670,OFFICE_PRIVATE_19_Z30_ZONEEQUIPMENTOUTLETNODE,Air,2
 Node,671,STORAGE_22_Z31_ZONEEQUIPMENTOUTLETNODE,Air,2
 Node,672,STORAGE_24_Z32_ZONEEQUIPMENTOUTLETNODE,Air,2
 Node,673,BREAK_ROOM_25_Z33_ZONEEQUIPMENTOUTLETNODE,Air,2
 Node,674,OFFICE_PRIVATE_25_Z34_ZONEEQUIPMENTOUTLETNODE,Air,2
 Node,675,STORAGE_25_Z35_ZONEEQUIPMENTOUTLETNODE,Air,2
 Node,676,STORAGE_26_Z36_ZONEEQUIPMENTOUTLETNODE,Air,2
 Node,677,CONFERENCE_27_Z37_ZONEEQUIPMENTOUTLETNODE,Air,2
 Node,678,BREAK_ROOM_27_Z38_ZONEEQUIPMENTOUTLETNODE,Air,2
 Node,679,OFFICE_PRIVATE_28_Z39_ZONEEQUIPMENTOUTLETNODE,Air,2
 Node,680,BREAK_ROOM_29_Z40_ZONEEQUIPMENTOUTLETNODE,Air,2
 Node,681,STORAGE_29_Z41_ZONEEQUIPMENTOUTLETNODE,Air,2
 Node,682,CONFERENCE_30_Z42_ZONEEQUIPMENTOUTLETNODE,Air,2
 Node,683,STORAGE_31_Z43_ZONEEQUIPMENTOUTLETNODE,Air,2
 Node,684,BREAK_ROOM_32_Z44_ZONEEQUIPMENTOUTLETNODE,Air,2
 Node,685,MECHANICAL_32_Z45_ZONEEQUIPMENTOUTLETNODE,Air,2
 Node,686,STORAGE_32_Z46_ZONEEQUIPMENTOUTLETNODE,Air,2
 Node,687,OFFICE_PRIVATE_33_Z47_ZONEEQUIPMENTOUTLETNODE,Air,2
 Node,688,OFFICE_PRIVATE_34_Z48_ZONEEQUIPMENTOUTLETNODE,Air,2
 Node,689,STORAGE_34_Z49_ZONEEQUIPMENTOUTLETNODE,Air,2
 Node,690,MECHANICAL_35_Z50_ZONEEQUIPMENTOUTLETNODE,Air,2
 Node,691,CONFERENCE_36_Z51_ZONEEQUIPMENTOUTLETNODE,Air,2
 Node,692,OFFICE_PRIVATE_36_Z52_ZONEEQUIPMENTOUTLETNODE,Air,2
 Node,693,OFFICE_PRIVATE_37_Z53_ZONEEQUIPMENTOUTLETNODE,Air,2
 Node,694,STORAGE_38_Z54_ZONEEQUIPMENTOUTLETNODE,Air,2
 Node,695,CONFERENCE_39_Z55_ZONEEQUIPMENTOUTLETNODE,Air,2
 Node,696,BREAK_ROOM_40_Z56_ZONEEQUIPMENTOUTLETNODE,Air,2
 Node,697,MECHANICAL_40_Z57_ZONEEQUIPMENTOUTLETNODE,Air,2
 Node,698,MECHANICAL_41_Z58_ZONEEQUIPMENTOUTLETNODE,Air,2
 Node,699,OFFICE_PRIVATE_41_Z59_ZONEEQUIPMENTOUTLETNODE,Air,2
 Node,700,BREAK_ROOM_42_Z60_ZONEEQUIPMENTOUTLETNODE,Air,2
 Node,701,STORAGE_42_Z61_ZONEEQUIPMENTOUTLETNODE,Air,2
 Node,702,LOBBY_43_Z62_ZONEEQUIPMENTOUTLETNODE,Air,2
 Node,703,STORAGE_43_Z63_ZONEEQUIPMENTOUTLETNODE,Air,2
 Node,704,BREAK_ROOM_44_Z64_ZONEEQUIPMENTOUTLETNODE,Air,2
 Node,705,OFFICE_PRIVATE_44_Z65_ZONEEQUIPMENTOUTLETNODE,Air,2
 Node,706,CONFERENCE_45_Z66_ZONEEQUIPMENTOUTLETNODE,Air,2
 Node,707,OFFICE_PRIVATE_45_Z67_ZONEEQUIPMENTOUTLETNODE,Air,2
 Node,708,BREAK_ROOM_46_Z68_ZONEEQUIPMENTOUTLETNODE,Air,2
 Node,709,OFFICE_PRIVATE_47_Z69_ZONEEQUIPMENTOUTLETNODE,Air,2
 Node,710,BREAK_ROOM_48_Z70_ZONEEQUIPMENTOUTLETNODE,Air,2
 Node,711,STORAGE_48_Z71_ZONEEQUIPMENTOUTLETNODE,Air,2
 Node,712,LOBBY_51_Z72_ZONEEQUIPMENTOUTLETNODE,Air,2
 Node,713,CONFERENCE_51_Z73_ZONEEQUIPMENTOUTLETNODE,Air,2
 Node,714,MECHANICAL_51_Z74_ZONEEQUIPMENTOUTLETNODE,Air,2
 Node,715,OFFICE_PRIVATE_51_Z75_ZONEEQUIPMENTOUTLETNODE,Air,2
 Node,716,MECHANICAL_52_Z76_ZONEEQUIPMENTOUTLETNODE,Air,2
 Node,717,OFFICE_PRIVATE_52_Z77_ZONEEQUIPMENTOUTLETNODE,Air,2
 Node,718,LOBBY_54_Z78_ZONEEQUIPMENTOUTLETNODE,Air,2
 Node,719,BREAK_ROOM_54_Z79_ZONEEQUIPMENTOUTLETNODE,Air,2
 Node,720,OFFICE_OPEN_54_Z80_ZONEEQUIPMENTOUTLETNODE,Air,2
 Node,721,MECHANICAL_0_Z1_TERMINALINLET,Air,1
 Node,722,OFFICE_PRIVATE_0_Z2_TERMINALINLET,Air,1
 Node,723,LOBBY_1_Z3_TERMINALINLET,Air,1
 Node,724,OFFICE_PRIVATE_1_Z4_TERMINALINLET,Air,1
 Node,725,BREAK_ROOM_2_Z5_TERMINALINLET,Air,1
 Node,726,OFFICE_PRIVATE_2_Z6_TERMINALINLET,Air,1
 Node,727,STORAGE_2_Z7_TERMINALINLET,Air,1
 Node,728,MECHANICAL_3_Z8_TERMINALINLET,Air,1
 Node,729,OFFICE_PRIVATE_3_Z9_TERMINALINLET,Air,1
 Node,730,OFFICE_PRIVATE_4_Z10_TERMINALINLET,Air,1
 Node,731,STORAGE_4_Z11_TERMINALINLET,Air,1
 Node,732,BREAK_ROOM_6_Z12_TERMINALINLET,Air,1
 Node,733,BREAK_ROOM_8_Z13_TERMINALINLET,Air,1
 Node,734,STORAGE_8_Z14_TERMINALINLET,Air,1
 Node,735,BREAK_ROOM_11_Z15_TERMINALINLET,Air,1
 Node,736,CONFERENCE_13_Z16_TERMINALINLET,Air,1
 Node,737,STORAGE_13_Z17_TERMINALINLET,Air,1
 Node,738,LOBBY_14_Z18_TERMINALINLET,Air,1
 Node,739,CONFERENCE_14_Z19_TERMINALINLET,Air,1
 Node,740,BREAK_ROOM_14_Z20_TERMINALINLET,Air,1
 Node,741,MECHANICAL_14_Z21_TERMINALINLET,Air,1
 Node,742,CONFERENCE_15_Z22_TERMINALINLET,Air,1
 Node,743,STORAGE_15_Z23_TERMINALINLET,Air,1
 Node,744,BREAK_ROOM_16_Z24_TERMINALINLET,Air,1
 Node,745,OFFICE_OPEN_16_Z25_TERMINALINLET,Air,1
 Node,746,BREAK_ROOM_18_Z26_TERMINALINLET,Air,1
 Node,747,OFFICE_PRIVATE_18_Z27_TERMINALINLET,Air,1
 Node,748,CONFERENCE_19_Z28_TERMINALINLET,Air,1
 Node,749,MECHANICAL_19_Z29_TERMINALINLET,Air,1
 Node,750,OFFICE_PRIVATE_19_Z30_TERMINALINLET,Air,1
 Node,751,STORAGE_22_Z31_TERMINALINLET,Air,1
 Node,752,STORAGE_24_Z32_TERMINALINLET,Air,1
 Node,753,BREAK_ROOM_25_Z33_TERMINALINLET,Air,1
 Node,754,OFFICE_PRIVATE_25_Z34_TERMINALINLET,Air,1
 Node,755,STORAGE_25_Z35_TERMINALINLET,Air,1
 Node,756,STORAGE_26_Z36_TERMINALINLET,Air,1
 Node,757,CONFERENCE_27_Z37_TERMINALINLET,Air,1
 Node,758,BREAK_ROOM_27_Z38_TERMINALINLET,Air,1
 Node,759,OFFICE_PRIVATE_28_Z39_TERMINALINLET,Air,1
 Node,760,BREAK_ROOM_29_Z40_TERMINALINLET,Air,1
 Node,761,STORAGE_29_Z41_TERMINALINLET,Air,1
 Node,762,CONFERENCE_30_Z42_TERMINALINLET,Air,1
 Node,763,STORAGE_31_Z43_TERMINALINLET,Air,1
 Node,764,BREAK_ROOM_32_Z44_TERMINALINLET,Air,1
 Node,765,MECHANICAL_32_Z45_TERMINALINLET,Air,1
 Node,766,STORAGE_32_Z46_TERMINALINLET,Air,1
 Node,767,OFFICE_PRIVATE_33_Z47_TERMINALINLET,Air,1
 Node,768,OFFICE_PRIVATE_34_Z48_TERMINALINLET,Air,1
 Node,769,STORAGE_34_Z49_TERMINALINLET,Air,1
 Node,770,MECHANICAL_35_Z50_TERMINALINLET,Air,1
 Node,771,CONFERENCE_36_Z51_TERMINALINLET,Air,1
 Node,772,OFFICE_PRIVATE_36_Z52_TERMINALINLET,Air,1
 Node,773,OFFICE_PRIVATE_37_Z53_TERMINALINLET,Air,1
 Node,774,STORAGE_38_Z54_TERMINALINLET,Air,1
 Node,775,CONFERENCE_39_Z55_TERMINALINLET,Air,1
 Node,776,BREAK_ROOM_40_Z56_TERMINALINLET,Air,1
 Node,777,MECHANICAL_40_Z57_TERMINALINLET,Air,1
 Node,778,MECHANICAL_41_Z58_TERMINALINLET,Air,1
 Node,779,OFFICE_PRIVATE_41_Z59_TERMINALINLET,Air,1
 Node,780,BREAK_ROOM_42_Z60_TERMINALINLET,Air,1
 Node,781,STORAGE_42_Z61_TERMINALINLET,Air,1
 Node,782,LOBBY_43_Z62_TERMINALINLET,Air,1
 Node,783,STORAGE_43_Z63_TERMINALINLET,Air,1
 Node,784,BREAK_ROOM_44_Z64_TERMINALINLET,Air,1
 Node,785,OFFICE_PRIVATE_44_Z65_TERMINALINLET,Air,1
 Node,786,CONFERENCE_45_Z66_TERMINALINLET,Air,1
 Node,787,OFFICE_PRIVATE_45_Z67_TERMINALINLET,Air,1
 Node,788,BREAK_ROOM_46_Z68_TERMINALINLET,Air,1
 Node,789,OFFICE_PRIVATE_47_Z69_TERMINALINLET,Air,1
 Node,790,BREAK_ROOM_48_Z70_TERMINALINLET,Air,1
 Node,791,STORAGE_48_Z71_TERMINALINLET,Air,1
 Node,792,LOBBY_51_Z72_TERMINALINLET,Air,1
 Node,793,CONFERENCE_51_Z73_TERMINALINLET,Air,1
 Node,794,MECHANICAL_51_Z74_TERMINALINLET,Air,1
 Node,795,OFFICE_PRIVATE_51_Z75_TERMINALINLET,Air,1
 Node,796,MECHANICAL_52_Z76_TERMINALINLET,Air,1
 Node,797,OFFICE_PRIVATE_52_Z77_TERMINALINLET,Air,1
 Node,798,LOBBY_54_Z78_TERMINALINLET,Air,1
 Node,799,BREAK_ROOM_54_Z79_TERMINALINLET,Air,1
 Node,800,OFFICE_OPEN_54_Z80_TERMINALINLET,Air,1
 Node,801,MECHANICAL_0_Z1_TERMINALOUTLET,Air,1
 Node,802,OFFICE_PRIVATE_0_Z2_TERMINALOUTLET,Air,1
 Node,803,LOBBY_1_Z3_TERMINALOUTLET,Air,1
 Node,804,OFFICE_PRIVATE_1_Z4_TERMINALOUTLET,Air,1
 Node,805,BREAK_ROOM_2_Z5_TERMINALOUTLET,Air,1
 Node,806,OFFICE_PRIVATE_2_Z6_TERMINALOUTLET,Air,1
 Node,807,STORAGE_2_Z7_TERMINALOUTLET,Air,1
 Node,808,MECHANICAL_3_Z8_TERMINALOUTLET,Air,1
 Node,809,OFFICE_PRIVATE_3_Z9_TERMINALOUTLET,Air,1
 Node,810,OFFICE_PRIVATE_4_Z10_TERMINALOUTLET,Air,1
 Node,811,STORAGE_4_Z11_TERMINALOUTLET,Air,1
 Node,812,BREAK_ROOM_6_Z12_TERMINALOUTLET,Air,1
 Node,813,BREAK_ROOM_8_Z13_TERMINALOUTLET,Air,1
 Node,814,STORAGE_8_Z14_TERMINALOUTLET,Air,1
 Node,815,BREAK_ROOM_11_Z15_TERMINALOUTLET,Air,1
 Node,816,CONFERENCE_13_Z16_TERMINALOUTLET,Air,1
 Node,817,STORAGE_13_Z17_TERMINALOUTLET,Air,1
 Node,818,LOBBY_14_Z18_TERMINALOUTLET,Air,1
 Node,819,CONFERENCE_14_Z19_TERMINALOUTLET,Air,1
 Node,820,BREAK_ROOM_14_Z20_TERMINALOUTLET,Air,1
 Node,821,MECHANICAL_14_Z21_TERMINALOUTLET,Air,1
 Node,822,CONFERENCE_15_Z22_TERMINALOUTLET,Air,1
 Node,823,STORAGE_15_Z23_TERMINALOUTLET,Air,1
 Node,824,BREAK_ROOM_16_Z24_TERMINALOUTLET,Air,1
 Node,825,OFFICE_OPEN_16_Z25_TERMINALOUTLET,Air,1
 Node,826,BREAK_ROOM_18_Z26_TERMINALOUTLET,Air,1
 Node,827,OFFICE_PRIVATE_18_Z27_TERMINALOUTLET,Air,1
 Node,828,CONFERENCE_19_Z28_TERMINALOUTLET,Air,1
 Node,829,MECHANICAL_19_Z29_TERMINALOUTLET,Air,1
 Node,830,OFFICE_PRIVATE_19_Z30_TERMINALOUTLET,Air,1
 Node,831,STORAGE_22_Z31_TERMINALOUTLET,Air,1
 Node,832,STORAGE_24_Z32_TERMINALOUTLET,Air,1
 Node,833,BREAK_ROOM_25_Z33_TERMINALOUTLET,Air,1
 Node,834,OFFICE_PRIVATE_25_Z34_TERMINALOUTLET,Air,1
 Node,835,STORAGE_25_Z35_TERMINALOUTLET,Air,1
 Node,836,STORAGE_26_Z36_TERMINALOUTLET,Air,1
 Node,837,CONFERENCE_27_Z37_TERMINALOUTLET,Air,1
 Node,838,BREAK_ROOM_27_Z38_TERMINALOUTLET,Air,1
 Node,839,OFFICE_PRIVATE_28_Z39_TERMINALOUTLET,Air,1
 Node,840,BREAK_ROOM_29_Z40_TERMINALOUTLET,Air,1
 Node,841,STORAGE_29_Z41_TERMINALOUTLET,Air,1
 Node,842,CONFERENCE_30_Z42_TERMINALOUTLET,Air,1
 Node,843,STORAGE_31_Z43_TERMINALOUTLET,Air,1
 Node,844,BREAK_ROOM_32_Z44_TERMINALOUTLET,Air,1
 Node,845,MECHANICAL_32_Z45_TERMINALOUTLET,Air,1
 Node,846,STORAGE_32_Z46_TERMINALOUTLET,Air,1
 Node,847,OFFICE_PRIVATE_33_Z47_TERMINALOUTLET,Air,1
 Node,848,OFFICE_PRIVATE_34_Z48_TERMINALOUTLET,Air,1
 Node,849,STORAGE_34_Z49_TERMINALOUTLET,Air,1
 Node,850,MECHANICAL_35_Z50_TERMINALOUTLET,Air,1
 Node,851,CONFERENCE_36_Z51_TERMINALOUTLET,Air,1
 Node,852,OFFICE_PRIVATE_36_Z52_TERMINALOUTLET,Air,1
 Node,853,OFFICE_PRIVATE_37_Z53_TERMINALOUTLET,Air,1
 Node,854,STORAGE_38_Z54_TERMINALOUTLET,Air,1
 Node,855,CONFERENCE_39_Z55_TERMINALOUTLET,Air,1
 Node,856,BREAK_ROOM_40_Z56_TERMINALOUTLET,Air,1
 Node,857,MECHANICAL_40_Z57_TERMINALOUTLET,Air,1
 Node,858,MECHANICAL_41_Z58_TERMINALOUTLET,Air,1
 Node,859,OFFICE_PRIVATE_41_Z59_TERMINALOUTLET,Air,1
 Node,860,BREAK_ROOM_42_Z60_TERMINALOUTLET,Air,1
 Node,861,STORAGE_42_Z61_TERMINALOUTLET,Air,1
 Node,862,LOBBY_43_Z62_TERMINALOUTLET,Air,1
 Node,863,STORAGE_43_Z63_TERMINALOUTLET,Air,1
 Node,864,BREAK_ROOM_44_Z64_TERMINALOUTLET,Air,1
 Node,865,OFFICE_PRIVATE_44_Z65_TERMINALOUTLET,Air,1
 Node,866,CONFERENCE_45_Z66_TERMINALOUTLET,Air,1
 Node,867,OFFICE_PRIVATE_45_Z67_TERMINALOUTLET,Air,1
 Node,868,BREAK_ROOM_46_Z68_TERMINALOUTLET,Air,1
 Node,869,OFFICE_PRIVATE_47_Z69_TERMINALOUTLET,Air,1
 Node,870,BREAK_ROOM_48_Z70_TERMINALOUTLET,Air,1
 Node,871,STORAGE_48_Z71_TERMINALOUTLET,Air,1
 Node,872,LOBBY_51_Z72_TERMINALOUTLET,Air,1
 Node,873,CONFERENCE_51_Z73_TERMINALOUTLET,Air,1
 Node,874,MECHANICAL_51_Z74_TERMINALOUTLET,Air,1
 Node,875,OFFICE_PRIVATE_51_Z75_TERMINALOUTLET,Air,1
 Node,876,MECHANICAL_52_Z76_TERMINALOUTLET,Air,1
 Node,877,OFFICE_PRIVATE_52_Z77_TERMINALOUTLET,Air,1
 Node,878,LOBBY_54_Z78_TERMINALOUTLET,Air,1
 Node,879,BREAK_ROOM_54_Z79_TERMINALOUTLET,Air,1
 Node,880,OFFICE_OPEN_54_Z80_TERMINALOUTLET,Air,1
! ===============================================================
! Suspicious nodes have 0 references.  It is normal for some nodes, however.
! Listing nodes with 0 references (culled from previous list):
! <Suspicious Node>,<NodeNumber>,<Node Name>,<Node Fluid Type>,<# Times Node Referenced After Definition>
 Suspicious Node,401,MECHANICAL_0 AIR NODE,Air,0
 Suspicious Node,403,OFFICE_PRIVATE_0 AIR NODE,Air,0
 Suspicious Node,405,LOBBY_1 AIR NODE,Air,0
 Suspicious Node,407,OFFICE_PRIVATE_1 AIR NODE,Air,0
 Suspicious Node,409,BREAK_ROOM_2 AIR NODE,Air,0
 Suspicious Node,411,OFFICE_PRIVATE_2 AIR NODE,Air,0
 Suspicious Node,413,STORAGE_2 AIR NODE,Air,0
 Suspicious Node,415,MECHANICAL_3 AIR NODE,Air,0
 Suspicious Node,417,OFFICE_PRIVATE_3 AIR NODE,Air,0
 Suspicious Node,419,OFFICE_PRIVATE_4 AIR NODE,Air,0
 Suspicious Node,421,STORAGE_4 AIR NODE,Air,0
 Suspicious Node,423,BREAK_ROOM_6 AIR NODE,Air,0
 Suspicious Node,425,BREAK_ROOM_8 AIR NODE,Air,0
 Suspicious Node,427,STORAGE_8 AIR NODE,Air,0
 Suspicious Node,429,BREAK_ROOM_11 AIR NODE,Air,0
 Suspicious Node,431,CONFERENCE_13 AIR NODE,Air,0
 Suspicious Node,433,STORAGE_13 AIR NODE,Air,0
 Suspicious Node,435,LOBBY_14 AIR NODE,Air,0
 Suspicious Node,437,CONFERENCE_14 AIR NODE,Air,0
 Suspicious Node,439,BREAK_ROOM_14 AIR NODE,Air,0
 Suspicious Node,441,MECHANICAL_14 AIR NODE,Air,0
 Suspicious Node,443,CONFERENCE_15 AIR NODE,Air,0
 Suspicious Node,445,STORAGE_15 AIR NODE,Air,0
 Suspicious Node,447,BREAK_ROOM_16 AIR NODE,Air,0
 Suspicious Node,449,OFFICE_OPEN_16 AIR NODE,Air,0
 Suspicious Node,451,BREAK_ROOM_18 AIR NODE,Air,0
 Suspicious Node,453,OFFICE_PRIVATE_18 AIR NODE,Air,0
 Suspicious Node,455,CONFERENCE_19 AIR NODE,Air,0
 Suspicious Node,457,MECHANICAL_19 AIR NODE,Air,0
 Suspicious Node,459,OFFICE_PRIVATE_19 AIR NODE,Air,0
 Suspicious Node,461,STORAGE_22 AIR NODE,Air,0
 Suspicious Node,463,STORAGE_24 AIR NODE,Air,0
 Suspicious Node,465,BREAK_ROOM_25 AIR NODE,Air,0
 Suspicious Node,467,OFFICE_PRIVATE_25 AIR NODE,Air,0
 Suspicious Node,469,STORAGE_25 AIR NODE,Air,0
 Suspicious Node,471,STORAGE_26 AIR NODE,Air,0
 Suspicious Node,473,CONFERENCE_27 AIR NODE,Air,0
 Suspicious Node,475,BREAK_ROOM_27 AIR NODE,Air,0
 Suspicious Node,477,OFFICE_PRIVATE_28 AIR NODE,Air,0
 Suspicious Node,479,BREAK_ROOM_29 AIR NODE,Air,0
 Suspicious Node,481,STORAGE_29 AIR NODE,Air,0
 Suspicious Node,483,CONFERENCE_30 AIR NODE,Air,0
 Suspicious Node,485,STORAGE_31 AIR NODE,Air,0
 Suspicious Node,487,BREAK_ROOM_32 AIR NODE,Air,0
 Suspicious Node,489,MECHANICAL_32 AIR NODE,Air,0
 Suspicious Node,491,STORAGE_32 AIR NODE,Air,0
 Suspicious Node,493,OFFICE_PRIVATE_33 AIR NODE,Air,0
 Suspicious Node,495,OFFICE_PRIVATE_34 AIR NODE,Air,0
 Suspicious Node,497,STORAGE_34 AIR NODE,Air,0
 Suspicious Node,499,MECHANICAL_35 AIR NODE,Air,0
 Suspicious Node,501,CONFERENCE_36 AIR NODE,Air,0
 Suspicious Node,503,OFFICE_PRIVATE_36 AIR NODE,Air,0
 Suspicious Node,505,OFFICE_PRIVATE_37 AIR NODE,Air,0
 Suspicious Node,507,STORAGE_38 AIR NODE,Air,0
 Suspicious Node,509,CONFERENCE_39 AIR NODE,Air,0
 Suspicious Node,511,BREAK_ROOM_40 AIR NODE,Air,0
 Suspicious Node,513,MECHANICAL_40 AIR NODE,Air,0
 Suspicious Node,515,MECHANICAL_41 AIR NODE,Air,0
 Suspicious Node,517,OFFICE_PRIVATE_41 AIR NODE,Air,0
 Suspicious Node,519,BREAK_ROOM_42 AIR NODE,Air,0
 Suspicious Node,521,STORAGE_42 AIR NODE,Air,0
 Suspicious Node,523,LOBBY_43 AIR NODE,Air,0
 Suspicious Node,525,STORAGE_43 AIR NODE,Air,0
 Suspicious Node,527,BREAK_ROOM_44 AIR NODE,Air,0
 Suspicious Node,529,OFFICE_PRIVATE_44 AIR NODE,Air,0
 Suspicious Node,531,CONFERENCE_45 AIR NODE,Air,0
 Suspicious Node,533,OFFICE_PRIVATE_45 AIR NODE,Air,0
 Suspicious Node,535,BREAK_ROOM_46 AIR NODE,Air,0
 Suspicious Node,537,OFFICE_PRIVATE_47 AIR NODE,Air,0
 Suspicious Node,539,BREAK_ROOM_48 AIR NODE,Air,0
 Suspicious Node,541,STORAGE_48 AIR NODE,Air,0
 Suspicious Node,543,LOBBY_51 AIR NODE,Air,0
 Suspicious Node,545,CONFERENCE_51 AIR NODE,Air,0
 Suspicious Node,547,MECHANICAL_51 AIR NODE,Air,0
 Suspicious Node,549,OFFICE_PRIVATE_51 AIR NODE,Air,0
 Suspicious Node,551,MECHANICAL_52 AIR NODE,Air,0
 Suspicious Node,553,OFFICE_PRIVATE_52 AIR NODE,Air,0
 Suspicious Node,555,LOBBY_54 AIR NODE,Air,0
 Suspicious Node,557,BREAK_ROOM_54 AIR NODE,Air,0
 Suspicious Node,559,OFFICE_OPEN_54 AIR NODE,Air,0
! ===============================================================
! <#Branch Lists>,<Number of Branch Lists>
 #Branch Lists,80
! <Branch List>,<Branch List Count>,<Branch List Name>,<Loop Name>,<Loop Type>,<Number of Branches>
! <Branch>,<Branch Count>,<Branch Name>,<Loop Name>,<Loop Type>,<Branch Inlet Node Name>,<Branch Outlet Node Name>
 Branch List,1,MECHANICAL_0_Z1_BRANCHLIST,MECHANICAL_0_Z1_AIRLOOP,Air,1
   Branch,1,MECHANICAL_0_Z1_MAINBRANCH,MECHANICAL_0_Z1_AIRLOOP,Air,MECHANICAL_0_Z1_SUPPLYINLET,MECHANICAL_0_Z1_SUPPLYEQUIPMENTOUTLETNODE
 Branch List,2,OFFICE_PRIVATE_0_Z2_BRANCHLIST,OFFICE_PRIVATE_0_Z2_AIRLOOP,Air,1
   Branch,1,OFFICE_PRIVATE_0_Z2_MAINBRANCH,OFFICE_PRIVATE_0_Z2_AIRLOOP,Air,OFFICE_PRIVATE_0_Z2_SUPPLYINLET,OFFICE_PRIVATE_0_Z2_SUPPLYEQUIPMENTOUTLETNODE
 Branch List,3,LOBBY_1_Z3_BRANCHLIST,LOBBY_1_Z3_AIRLOOP,Air,1
   Branch,1,LOBBY_1_Z3_MAINBRANCH,LOBBY_1_Z3_AIRLOOP,Air,LOBBY_1_Z3_SUPPLYINLET,LOBBY_1_Z3_SUPPLYEQUIPMENTOUTLETNODE
 Branch List,4,OFFICE_PRIVATE_1_Z4_BRANCHLIST,OFFICE_PRIVATE_1_Z4_AIRLOOP,Air,1
   Branch,1,OFFICE_PRIVATE_1_Z4_MAINBRANCH,OFFICE_PRIVATE_1_Z4_AIRLOOP,Air,OFFICE_PRIVATE_1_Z4_SUPPLYINLET,OFFICE_PRIVATE_1_Z4_SUPPLYEQUIPMENTOUTLETNODE
 Branch List,5,BREAK_ROOM_2_Z5_BRANCHLIST,BREAK_ROOM_2_Z5_AIRLOOP,Air,1
   Branch,1,BREAK_ROOM_2_Z5_MAINBRANCH,BREAK_ROOM_2_Z5_AIRLOOP,Air,BREAK_ROOM_2_Z5_SUPPLYINLET,BREAK_ROOM_2_Z5_SUPPLYEQUIPMENTOUTLETNODE
 Branch List,6,OFFICE_PRIVATE_2_Z6_BRANCHLIST,OFFICE_PRIVATE_2_Z6_AIRLOOP,Air,1
   Branch,1,OFFICE_PRIVATE_2_Z6_MAINBRANCH,OFFICE_PRIVATE_2_Z6_AIRLOOP,Air,OFFICE_PRIVATE_2_Z6_SUPPLYINLET,OFFICE_PRIVATE_2_Z6_SUPPLYEQUIPMENTOUTLETNODE
 Branch List,7,STORAGE_2_Z7_BRANCHLIST,STORAGE_2_Z7_AIRLOOP,Air,1
   Branch,1,STORAGE_2_Z7_MAINBRANCH,STORAGE_2_Z7_AIRLOOP,Air,STORAGE_2_Z7_SUPPLYINLET,STORAGE_2_Z7_SUPPLYEQUIPMENTOUTLETNODE
 Branch List,8,MECHANICAL_3_Z8_BRANCHLIST,MECHANICAL_3_Z8_AIRLOOP,Air,1
   Branch,1,MECHANICAL_3_Z8_MAINBRANCH,MECHANICAL_3_Z8_AIRLOOP,Air,MECHANICAL_3_Z8_SUPPLYINLET,MECHANICAL_3_Z8_SUPPLYEQUIPMENTOUTLETNODE
 Branch List,9,OFFICE_PRIVATE_3_Z9_BRANCHLIST,OFFICE_PRIVATE_3_Z9_AIRLOOP,Air,1
   Branch,1,OFFICE_PRIVATE_3_Z9_MAINBRANCH,OFFICE_PRIVATE_3_Z9_AIRLOOP,Air,OFFICE_PRIVATE_3_Z9_SUPPLYINLET,OFFICE_PRIVATE_3_Z9_SUPPLYEQUIPMENTOUTLETNODE
 Branch List,10,OFFICE_PRIVATE_4_Z10_BRANCHLIST,OFFICE_PRIVATE_4_Z10_AIRLOOP,Air,1
   Branch,1,OFFICE_PRIVATE_4_Z10_MAINBRANCH,OFFICE_PRIVATE_4_Z10_AIRLOOP,Air,OFFICE_PRIVATE_4_Z10_SUPPLYINLET,OFFICE_PRIVATE_4_Z10_SUPPLYEQUIPMENTOUTLETNODE
 Branch List,11,STORAGE_4_Z11_BRANCHLIST,STORAGE_4_Z11_AIRLOOP,Air,1
   Branch,1,STORAGE_4_Z11_MAINBRANCH,STORAGE_4_Z11_AIRLOOP,Air,STORAGE_4_Z11_SUPPLYINLET,STORAGE_4_Z11_SUPPLYEQUIPMENTOUTLETNODE
 Branch List,12,BREAK_ROOM_6_Z12_BRANCHLIST,BREAK_ROOM_6_Z12_AIRLOOP,Air,1
   Branch,1,BREAK_ROOM_6_Z12_MAINBRANCH,BREAK_ROOM_6_Z12_AIRLOOP,Air,BREAK_ROOM_6_Z12_SUPPLYINLET,BREAK_ROOM_6_Z12_SUPPLYEQUIPMENTOUTLETNODE
 Branch List,13,BREAK_ROOM_8_Z13_BRANCHLIST,BREAK_ROOM_8_Z13_AIRLOOP,Air,1
   Branch,1,BREAK_ROOM_8_Z13_MAINBRANCH,BREAK_ROOM_8_Z13_AIRLOOP,Air,BREAK_ROOM_8_Z13_SUPPLYINLET,BREAK_ROOM_8_Z13_SUPPLYEQUIPMENTOUTLETNODE
 Branch List,14,STORAGE_8_Z14_BRANCHLIST,STORAGE_8_Z14_AIRLOOP,Air,1
   Branch,1,STORAGE_8_Z14_MAINBRANCH,STORAGE_8_Z14_AIRLOOP,Air,STORAGE_8_Z14_SUPPLYINLET,STORAGE_8_Z14_SUPPLYEQUIPMENTOUTLETNODE
 Branch List,15,BREAK_ROOM_11_Z15_BRANCHLIST,BREAK_ROOM_11_Z15_AIRLOOP,Air,1
   Branch,1,BREAK_ROOM_11_Z15_MAINBRANCH,BREAK_ROOM_11_Z15_AIRLOOP,Air,BREAK_ROOM_11_Z15_SUPPLYINLET,BREAK_ROOM_11_Z15_SUPPLYEQUIPMENTOUTLETNODE
 Branch List,16,CONFERENCE_13_Z16_BRANCHLIST,CONFERENCE_13_Z16_AIRLOOP,Air,1
   Branch,1,CONFERENCE_13_Z16_MAINBRANCH,CONFERENCE_13_Z16_AIRLOOP,Air,CONFERENCE_13_Z16_SUPPLYINLET,CONFERENCE_13_Z16_SUPPLYEQUIPMENTOUTLETNODE
 Branch List,17,STORAGE_13_Z17_BRANCHLIST,STORAGE_13_Z17_AIRLOOP,Air,1
   Branch,1,STORAGE_13_Z17_MAINBRANCH,STORAGE_13_Z17_AIRLOOP,Air,STORAGE_13_Z17_SUPPLYINLET,STORAGE_13_Z17_SUPPLYEQUIPMENTOUTLETNODE
 Branch List,18,LOBBY_14_Z18_BRANCHLIST,LOBBY_14_Z18_AIRLOOP,Air,1
   Branch,1,LOBBY_14_Z18_MAINBRANCH,LOBBY_14_Z18_AIRLOOP,Air,LOBBY_14_Z18_SUPPLYINLET,LOBBY_14_Z18_SUPPLYEQUIPMENTOUTLETNODE
 Branch List,19,CONFERENCE_14_Z19_BRANCHLIST,CONFERENCE_14_Z19_AIRLOOP,Air,1
   Branch,1,CONFERENCE_14_Z19_MAINBRANCH,CONFERENCE_14_Z19_AIRLOOP,Air,CONFERENCE_14_Z19_SUPPLYINLET,CONFERENCE_14_Z19_SUPPLYEQUIPMENTOUTLETNODE
 Branch List,20,BREAK_ROOM_14_Z20_BRANCHLIST,BREAK_ROOM_14_Z20_AIRLOOP,Air,1
   Branch,1,BREAK_ROOM_14_Z20_MAINBRANCH,BREAK_ROOM_14_Z20_AIRLOOP,Air,BREAK_ROOM_14_Z20_SUPPLYINLET,BREAK_ROOM_14_Z20_SUPPLYEQUIPMENTOUTLETNODE
 Branch List,21,MECHANICAL_14_Z21_BRANCHLIST,MECHANICAL_14_Z21_AIRLOOP,Air,1
   Branch,1,MECHANICAL_14_Z21_MAINBRANCH,MECHANICAL_14_Z21_AIRLOOP,Air,MECHANICAL_14_Z21_SUPPLYINLET,MECHANICAL_14_Z21_SUPPLYEQUIPMENTOUTLETNODE
 Branch List,22,CONFERENCE_15_Z22_BRANCHLIST,CONFERENCE_15_Z22_AIRLOOP,Air,1
   Branch,1,CONFERENCE_15_Z22_MAINBRANCH,CONFERENCE_15_Z22_AIRLOOP,Air,CONFERENCE_15_Z22_SUPPLYINLET,CONFERENCE_15_Z22_SUPPLYEQUIPMENTOUTLETNODE
 Branch List,23,STORAGE_15_Z23_BRANCHLIST,STORAGE_15_Z23_AIRLOOP,Air,1
   Branch,1,STORAGE_15_Z23_MAINBRANCH,STORAGE_15_Z23_AIRLOOP,Air,STORAGE_15_Z23_SUPPLYINLET,STORAGE_15_Z23_SUPPLYEQUIPMENTOUTLETNODE
 Branch List,24,BREAK_ROOM_16_Z24_BRANCHLIST,BREAK_ROOM_16_Z24_AIRLOOP,Air,1
   Branch,1,BREAK_ROOM_16_Z24_MAINBRANCH,BREAK_ROOM_16_Z24_AIRLOOP,Air,BREAK_ROOM_16_Z24_SUPPLYINLET,BREAK_ROOM_16_Z24_SUPPLYEQUIPMENTOUTLETNODE
 Branch List,25,OFFICE_OPEN_16_Z25_BRANCHLIST,OFFICE_OPEN_16_Z25_AIRLOOP,Air,1
   Branch,1,OFFICE_OPEN_16_Z25_MAINBRANCH,OFFICE_OPEN_16_Z25_AIRLOOP,Air,OFFICE_OPEN_16_Z25_SUPPLYINLET,OFFICE_OPEN_16_Z25_SUPPLYEQUIPMENTOUTLETNODE
 Branch List,26,BREAK_ROOM_18_Z26_BRANCHLIST,BREAK_ROOM_18_Z26_AIRLOOP,Air,1
   Branch,1,BREAK_ROOM_18_Z26_MAINBRANCH,BREAK_ROOM_18_Z26_AIRLOOP,Air,BREAK_ROOM_18_Z26_SUPPLYINLET,BREAK_ROOM_18_Z26_SUPPLYEQUIPMENTOUTLETNODE
 Branch List,27,OFFICE_PRIVATE_18_Z27_BRANCHLIST,OFFICE_PRIVATE_18_Z27_AIRLOOP,Air,1
   Branch,1,OFFICE_PRIVATE_18_Z27_MAINBRANCH,OFFICE_PRIVATE_18_Z27_AIRLOOP,Air,OFFICE_PRIVATE_18_Z27_SUPPLYINLET,OFFICE_PRIVATE_18_Z27_SUPPLYEQUIPMENTOUTLETNODE
 Branch List,28,CONFERENCE_19_Z28_BRANCHLIST,CONFERENCE_19_Z28_AIRLOOP,Air,1
   Branch,1,CONFERENCE_19_Z28_MAINBRANCH,CONFERENCE_19_Z28_AIRLOOP,Air,CONFERENCE_19_Z28_SUPPLYINLET,CONFERENCE_19_Z28_SUPPLYEQUIPMENTOUTLETNODE
 Branch List,29,MECHANICAL_19_Z29_BRANCHLIST,MECHANICAL_19_Z29_AIRLOOP,Air,1
   Branch,1,MECHANICAL_19_Z29_MAINBRANCH,MECHANICAL_19_Z29_AIRLOOP,Air,MECHANICAL_19_Z29_SUPPLYINLET,MECHANICAL_19_Z29_SUPPLYEQUIPMENTOUTLETNODE
 Branch List,30,OFFICE_PRIVATE_19_Z30_BRANCHLIST,OFFICE_PRIVATE_19_Z30_AIRLOOP,Air,1
   Branch,1,OFFICE_PRIVATE_19_Z30_MAINBRANCH,OFFICE_PRIVATE_19_Z30_AIRLOOP,Air,OFFICE_PRIVATE_19_Z30_SUPPLYINLET,OFFICE_PRIVATE_19_Z30_SUPPLYEQUIPMENTOUTLETNODE
 Branch List,31,STORAGE_22_Z31_BRANCHLIST,STORAGE_22_Z31_AIRLOOP,Air,1
   Branch,1,STORAGE_22_Z31_MAINBRANCH,STORAGE_22_Z31_AIRLOOP,Air,STORAGE_22_Z31_SUPPLYINLET,STORAGE_22_Z31_SUPPLYEQUIPMENTOUTLETNODE
 Branch List,32,STORAGE_24_Z32_BRANCHLIST,STORAGE_24_Z32_AIRLOOP,Air,1
   Branch,1,STORAGE_24_Z32_MAINBRANCH,STORAGE_24_Z32_AIRLOOP,Air,STORAGE_24_Z32_SUPPLYINLET,STORAGE_24_Z32_SUPPLYEQUIPMENTOUTLETNODE
 Branch List,33,BREAK_ROOM_25_Z33_BRANCHLIST,BREAK_ROOM_25_Z33_AIRLOOP,Air,1
   Branch,1,BREAK_ROOM_25_Z33_MAINBRANCH,BREAK_ROOM_25_Z33_AIRLOOP,Air,BREAK_ROOM_25_Z33_SUPPLYINLET,BREAK_ROOM_25_Z33_SUPPLYEQUIPMENTOUTLETNODE
 Branch List,34,OFFICE_PRIVATE_25_Z34_BRANCHLIST,OFFICE_PRIVATE_25_Z34_AIRLOOP,Air,1
   Branch,1,OFFICE_PRIVATE_25_Z34_MAINBRANCH,OFFICE_PRIVATE_25_Z34_AIRLOOP,Air,OFFICE_PRIVATE_25_Z34_SUPPLYINLET,OFFICE_PRIVATE_25_Z34_SUPPLYEQUIPMENTOUTLETNODE
 Branch List,35,STORAGE_25_Z35_BRANCHLIST,STORAGE_25_Z35_AIRLOOP,Air,1
   Branch,1,STORAGE_25_Z35_MAINBRANCH,STORAGE_25_Z35_AIRLOOP,Air,STORAGE_25_Z35_SUPPLYINLET,STORAGE_25_Z35_SUPPLYEQUIPMENTOUTLETNODE
 Branch List,36,STORAGE_26_Z36_BRANCHLIST,STORAGE_26_Z36_AIRLOOP,Air,1
   Branch,1,STORAGE_26_Z36_MAINBRANCH,STORAGE_26_Z36_AIRLOOP,Air,STORAGE_26_Z36_SUPPLYINLET,STORAGE_26_Z36_SUPPLYEQUIPMENTOUTLETNODE
 Branch List,37,CONFERENCE_27_Z37_BRANCHLIST,CONFERENCE_27_Z37_AIRLOOP,Air,1
   Branch,1,CONFERENCE_27_Z37_MAINBRANCH,CONFERENCE_27_Z37_AIRLOOP,Air,CONFERENCE_27_Z37_SUPPLYINLET,CONFERENCE_27_Z37_SUPPLYEQUIPMENTOUTLETNODE
 Branch List,38,BREAK_ROOM_27_Z38_BRANCHLIST,BREAK_ROOM_27_Z38_AIRLOOP,Air,1
   Branch,1,BREAK_ROOM_27_Z38_MAINBRANCH,BREAK_ROOM_27_Z38_AIRLOOP,Air,BREAK_ROOM_27_Z38_SUPPLYINLET,BREAK_ROOM_27_Z38_SUPPLYEQUIPMENTOUTLETNODE
 Branch List,39,OFFICE_PRIVATE_28_Z39_BRANCHLIST,OFFICE_PRIVATE_28_Z39_AIRLOOP,Air,1
   Branch,1,OFFICE_PRIVATE_28_Z39_MAINBRANCH,OFFICE_PRIVATE_28_Z39_AIRLOOP,Air,OFFICE_PRIVATE_28_Z39_SUPPLYINLET,OFFICE_PRIVATE_28_Z39_SUPPLYEQUIPMENTOUTLETNODE
 Branch List,40,BREAK_ROOM_29_Z40_BRANCHLIST,BREAK_ROOM_29_Z40_AIRLOOP,Air,1
   Branch,1,BREAK_ROOM_29_Z40_MAINBRANCH,BREAK_ROOM_29_Z40_AIRLOOP,Air,BREAK_ROOM_29_Z40_SUPPLYINLET,BREAK_ROOM_29_Z40_SUPPLYEQUIPMENTOUTLETNODE
 Branch List,41,STORAGE_29_Z41_BRANCHLIST,STORAGE_29_Z41_AIRLOOP,Air,1
   Branch,1,STORAGE_29_Z41_MAINBRANCH,STORAGE_29_Z41_AIRLOOP,Air,STORAGE_29_Z41_SUPPLYINLET,STORAGE_29_Z41_SUPPLYEQUIPMENTOUTLETNODE
 Branch List,42,CONFERENCE_30_Z42_BRANCHLIST,CONFERENCE_30_Z42_AIRLOOP,Air,1
   Branch,1,CONFERENCE_30_Z42_MAINBRANCH,CONFERENCE_30_Z42_AIRLOOP,Air,CONFERENCE_30_Z42_SUPPLYINLET,CONFERENCE_30_Z42_SUPPLYEQUIPMENTOUTLETNODE
 Branch List,43,STORAGE_31_Z43_BRANCHLIST,STORAGE_31_Z43_AIRLOOP,Air,1
   Branch,1,STORAGE_31_Z43_MAINBRANCH,STORAGE_31_Z43_AIRLOOP,Air,STORAGE_31_Z43_SUPPLYINLET,STORAGE_31_Z43_SUPPLYEQUIPMENTOUTLETNODE
 Branch List,44,BREAK_ROOM_32_Z44_BRANCHLIST,BREAK_ROOM_32_Z44_AIRLOOP,Air,1
   Branch,1,BREAK_ROOM_32_Z44_MAINBRANCH,BREAK_ROOM_32_Z44_AIRLOOP,Air,BREAK_ROOM_32_Z44_SUPPLYINLET,BREAK_ROOM_32_Z44_SUPPLYEQUIPMENTOUTLETNODE
 Branch List,45,MECHANICAL_32_Z45_BRANCHLIST,MECHANICAL_32_Z45_AIRLOOP,Air,1
   Branch,1,MECHANICAL_32_Z45_MAINBRANCH,MECHANICAL_32_Z45_AIRLOOP,Air,MECHANICAL_32_Z45_SUPPLYINLET,MECHANICAL_32_Z45_SUPPLYEQUIPMENTOUTLETNODE
 Branch List,46,STORAGE_32_Z46_BRANCHLIST,STORAGE_32_Z46_AIRLOOP,Air,1
   Branch,1,STORAGE_32_Z46_MAINBRANCH,STORAGE_32_Z46_AIRLOOP,Air,STORAGE_32_Z46_SUPPLYINLET,STORAGE_32_Z46_SUPPLYEQUIPMENTOUTLETNODE
 Branch List,47,OFFICE_PRIVATE_33_Z47_BRANCHLIST,OFFICE_PRIVATE_33_Z47_AIRLOOP,Air,1
   Branch,1,OFFICE_PRIVATE_33_Z47_MAINBRANCH,OFFICE_PRIVATE_33_Z47_AIRLOOP,Air,OFFICE_PRIVATE_33_Z47_SUPPLYINLET,OFFICE_PRIVATE_33_Z47_SUPPLYEQUIPMENTOUTLETNODE
 Branch List,48,OFFICE_PRIVATE_34_Z48_BRANCHLIST,OFFICE_PRIVATE_34_Z48_AIRLOOP,Air,1
   Branch,1,OFFICE_PRIVATE_34_Z48_MAINBRANCH,OFFICE_PRIVATE_34_Z48_AIRLOOP,Air,OFFICE_PRIVATE_34_Z48_SUPPLYINLET,OFFICE_PRIVATE_34_Z48_SUPPLYEQUIPMENTOUTLETNODE
 Branch List,49,STORAGE_34_Z49_BRANCHLIST,STORAGE_34_Z49_AIRLOOP,Air,1
   Branch,1,STORAGE_34_Z49_MAINBRANCH,STORAGE_34_Z49_AIRLOOP,Air,STORAGE_34_Z49_SUPPLYINLET,STORAGE_34_Z49_SUPPLYEQUIPMENTOUTLETNODE
 Branch List,50,MECHANICAL_35_Z50_BRANCHLIST,MECHANICAL_35_Z50_AIRLOOP,Air,1
   Branch,1,MECHANICAL_35_Z50_MAINBRANCH,MECHANICAL_35_Z50_AIRLOOP,Air,MECHANICAL_35_Z50_SUPPLYINLET,MECHANICAL_35_Z50_SUPPLYEQUIPMENTOUTLETNODE
 Branch List,51,CONFERENCE_36_Z51_BRANCHLIST,CONFERENCE_36_Z51_AIRLOOP,Air,1
   Branch,1,CONFERENCE_36_Z51_MAINBRANCH,CONFERENCE_36_Z51_AIRLOOP,Air,CONFERENCE_36_Z51_SUPPLYINLET,CONFERENCE_36_Z51_SUPPLYEQUIPMENTOUTLETNODE
 Branch List,52,OFFICE_PRIVATE_36_Z52_BRANCHLIST,OFFICE_PRIVATE_36_Z52_AIRLOOP,Air,1
   Branch,1,OFFICE_PRIVATE_36_Z52_MAINBRANCH,OFFICE_PRIVATE_36_Z52_AIRLOOP,Air,OFFICE_PRIVATE_36_Z52_SUPPLYINLET,OFFICE_PRIVATE_36_Z52_SUPPLYEQUIPMENTOUTLETNODE
 Branch List,53,OFFICE_PRIVATE_37_Z53_BRANCHLIST,OFFICE_PRIVATE_37_Z53_AIRLOOP,Air,1
   Branch,1,OFFICE_PRIVATE_37_Z53_MAINBRANCH,OFFICE_PRIVATE_37_Z53_AIRLOOP,Air,OFFICE_PRIVATE_37_Z53_SUPPLYINLET,OFFICE_PRIVATE_37_Z53_SUPPLYEQUIPMENTOUTLETNODE
 Branch List,54,STORAGE_38_Z54_BRANCHLIST,STORAGE_38_Z54_AIRLOOP,Air,1
   Branch,1,STORAGE_38_Z54_MAINBRANCH,STORAGE_38_Z54_AIRLOOP,Air,STORAGE_38_Z54_SUPPLYINLET,STORAGE_38_Z54_SUPPLYEQUIPMENTOUTLETNODE
 Branch List,55,CONFERENCE_39_Z55_BRANCHLIST,CONFERENCE_39_Z55_AIRLOOP,Air,1
   Branch,1,CONFERENCE_39_Z55_MAINBRANCH,CONFERENCE_39_Z55_AIRLOOP,Air,CONFERENCE_39_Z55_SUPPLYINLET,CONFERENCE_39_Z55_SUPPLYEQUIPMENTOUTLETNODE
 Branch List,56,BREAK_ROOM_40_Z56_BRANCHLIST,BREAK_ROOM_40_Z56_AIRLOOP,Air,1
   Branch,1,BREAK_ROOM_40_Z56_MAINBRANCH,BREAK_ROOM_40_Z56_AIRLOOP,Air,BREAK_ROOM_40_Z56_SUPPLYINLET,BREAK_ROOM_40_Z56_SUPPLYEQUIPMENTOUTLETNODE
 Branch List,57,MECHANICAL_40_Z57_BRANCHLIST,MECHANICAL_40_Z57_AIRLOOP,Air,1
   Branch,1,MECHANICAL_40_Z57_MAINBRANCH,MECHANICAL_40_Z57_AIRLOOP,Air,MECHANICAL_40_Z57_SUPPLYINLET,MECHANICAL_40_Z57_SUPPLYEQUIPMENTOUTLETNODE
 Branch List,58,MECHANICAL_41_Z58_BRANCHLIST,MECHANICAL_41_Z58_AIRLOOP,Air,1
   Branch,1,MECHANICAL_41_Z58_MAINBRANCH,MECHANICAL_41_Z58_AIRLOOP,Air,MECHANICAL_41_Z58_SUPPLYINLET,MECHANICAL_41_Z58_SUPPLYEQUIPMENTOUTLETNODE
 Branch List,59,OFFICE_PRIVATE_41_Z59_BRANCHLIST,OFFICE_PRIVATE_41_Z59_AIRLOOP,Air,1
   Branch,1,OFFICE_PRIVATE_41_Z59_MAINBRANCH,OFFICE_PRIVATE_41_Z59_AIRLOOP,Air,OFFICE_PRIVATE_41_Z59_SUPPLYINLET,OFFICE_PRIVATE_41_Z59_SUPPLYEQUIPMENTOUTLETNODE
 Branch List,60,BREAK_ROOM_42_Z60_BRANCHLIST,BREAK_ROOM_42_Z60_AIRLOOP,Air,1
   Branch,1,BREAK_ROOM_42_Z60_MAINBRANCH,BREAK_ROOM_42_Z60_AIRLOOP,Air,BREAK_ROOM_42_Z60_SUPPLYINLET,BREAK_ROOM_42_Z60_SUPPLYEQUIPMENTOUTLETNODE
 Branch List,61,STORAGE_42_Z61_BRANCHLIST,STORAGE_42_Z61_AIRLOOP,Air,1
   Branch,1,STORAGE_42_Z61_MAINBRANCH,STORAGE_42_Z61_AIRLOOP,Air,STORAGE_42_Z61_SUPPLYINLET,STORAGE_42_Z61_SUPPLYEQUIPMENTOUTLETNODE
 Branch List,62,LOBBY_43_Z62_BRANCHLIST,LOBBY_43_Z62_AIRLOOP,Air,1
   Branch,1,LOBBY_43_Z62_MAINBRANCH,LOBBY_43_Z62_AIRLOOP,Air,LOBBY_43_Z62_SUPPLYINLET,LOBBY_43_Z62_SUPPLYEQUIPMENTOUTLETNODE
 Branch List,63,STORAGE_43_Z63_BRANCHLIST,STORAGE_43_Z63_AIRLOOP,Air,1
   Branch,1,STORAGE_43_Z63_MAINBRANCH,STORAGE_43_Z63_AIRLOOP,Air,STORAGE_43_Z63_SUPPLYINLET,STORAGE_43_Z63_SUPPLYEQUIPMENTOUTLETNODE
 Branch List,64,BREAK_ROOM_44_Z64_BRANCHLIST,BREAK_ROOM_44_Z64_AIRLOOP,Air,1
   Branch,1,BREAK_ROOM_44_Z64_MAINBRANCH,BREAK_ROOM_44_Z64_AIRLOOP,Air,BREAK_ROOM_44_Z64_SUPPLYINLET,BREAK_ROOM_44_Z64_SUPPLYEQUIPMENTOUTLETNODE
 Branch List,65,OFFICE_PRIVATE_44_Z65_BRANCHLIST,OFFICE_PRIVATE_44_Z65_AIRLOOP,Air,1
   Branch,1,OFFICE_PRIVATE_44_Z65_MAINBRANCH,OFFICE_PRIVATE_44_Z65_AIRLOOP,Air,OFFICE_PRIVATE_44_Z65_SUPPLYINLET,OFFICE_PRIVATE_44_Z65_SUPPLYEQUIPMENTOUTLETNODE
 Branch List,66,CONFERENCE_45_Z66_BRANCHLIST,CONFERENCE_45_Z66_AIRLOOP,Air,1
   Branch,1,CONFERENCE_45_Z66_MAINBRANCH,CONFERENCE_45_Z66_AIRLOOP,Air,CONFERENCE_45_Z66_SUPPLYINLET,CONFERENCE_45_Z66_SUPPLYEQUIPMENTOUTLETNODE
 Branch List,67,OFFICE_PRIVATE_45_Z67_BRANCHLIST,OFFICE_PRIVATE_45_Z67_AIRLOOP,Air,1
   Branch,1,OFFICE_PRIVATE_45_Z67_MAINBRANCH,OFFICE_PRIVATE_45_Z67_AIRLOOP,Air,OFFICE_PRIVATE_45_Z67_SUPPLYINLET,OFFICE_PRIVATE_45_Z67_SUPPLYEQUIPMENTOUTLETNODE
 Branch List,68,BREAK_ROOM_46_Z68_BRANCHLIST,BREAK_ROOM_46_Z68_AIRLOOP,Air,1
   Branch,1,BREAK_ROOM_46_Z68_MAINBRANCH,BREAK_ROOM_46_Z68_AIRLOOP,Air,BREAK_ROOM_46_Z68_SUPPLYINLET,BREAK_ROOM_46_Z68_SUPPLYEQUIPMENTOUTLETNODE
 Branch List,69,OFFICE_PRIVATE_47_Z69_BRANCHLIST,OFFICE_PRIVATE_47_Z69_AIRLOOP,Air,1
   Branch,1,OFFICE_PRIVATE_47_Z69_MAINBRANCH,OFFICE_PRIVATE_47_Z69_AIRLOOP,Air,OFFICE_PRIVATE_47_Z69_SUPPLYINLET,OFFICE_PRIVATE_47_Z69_SUPPLYEQUIPMENTOUTLETNODE
 Branch List,70,BREAK_ROOM_48_Z70_BRANCHLIST,BREAK_ROOM_48_Z70_AIRLOOP,Air,1
   Branch,1,BREAK_ROOM_48_Z70_MAINBRANCH,BREAK_ROOM_48_Z70_AIRLOOP,Air,BREAK_ROOM_48_Z70_SUPPLYINLET,BREAK_ROOM_48_Z70_SUPPLYEQUIPMENTOUTLETNODE
 Branch List,71,STORAGE_48_Z71_BRANCHLIST,STORAGE_48_Z71_AIRLOOP,Air,1
   Branch,1,STORAGE_48_Z71_MAINBRANCH,STORAGE_48_Z71_AIRLOOP,Air,STORAGE_48_Z71_SUPPLYINLET,STORAGE_48_Z71_SUPPLYEQUIPMENTOUTLETNODE
 Branch List,72,LOBBY_51_Z72_BRANCHLIST,LOBBY_51_Z72_AIRLOOP,Air,1
   Branch,1,LOBBY_51_Z72_MAINBRANCH,LOBBY_51_Z72_AIRLOOP,Air,LOBBY_51_Z72_SUPPLYINLET,LOBBY_51_Z72_SUPPLYEQUIPMENTOUTLETNODE
 Branch List,73,CONFERENCE_51_Z73_BRANCHLIST,CONFERENCE_51_Z73_AIRLOOP,Air,1
   Branch,1,CONFERENCE_51_Z73_MAINBRANCH,CONFERENCE_51_Z73_AIRLOOP,Air,CONFERENCE_51_Z73_SUPPLYINLET,CONFERENCE_51_Z73_SUPPLYEQUIPMENTOUTLETNODE
 Branch List,74,MECHANICAL_51_Z74_BRANCHLIST,MECHANICAL_51_Z74_AIRLOOP,Air,1
   Branch,1,MECHANICAL_51_Z74_MAINBRANCH,MECHANICAL_51_Z74_AIRLOOP,Air,MECHANICAL_51_Z74_SUPPLYINLET,MECHANICAL_51_Z74_SUPPLYEQUIPMENTOUTLETNODE
 Branch List,75,OFFICE_PRIVATE_51_Z75_BRANCHLIST,OFFICE_PRIVATE_51_Z75_AIRLOOP,Air,1
   Branch,1,OFFICE_PRIVATE_51_Z75_MAINBRANCH,OFFICE_PRIVATE_51_Z75_AIRLOOP,Air,OFFICE_PRIVATE_51_Z75_SUPPLYINLET,OFFICE_PRIVATE_51_Z75_SUPPLYEQUIPMENTOUTLETNODE
 Branch List,76,MECHANICAL_52_Z76_BRANCHLIST,MECHANICAL_52_Z76_AIRLOOP,Air,1
   Branch,1,MECHANICAL_52_Z76_MAINBRANCH,MECHANICAL_52_Z76_AIRLOOP,Air,MECHANICAL_52_Z76_SUPPLYINLET,MECHANICAL_52_Z76_SUPPLYEQUIPMENTOUTLETNODE
 Branch List,77,OFFICE_PRIVATE_52_Z77_BRANCHLIST,OFFICE_PRIVATE_52_Z77_AIRLOOP,Air,1
   Branch,1,OFFICE_PRIVATE_52_Z77_MAINBRANCH,OFFICE_PRIVATE_52_Z77_AIRLOOP,Air,OFFICE_PRIVATE_52_Z77_SUPPLYINLET,OFFICE_PRIVATE_52_Z77_SUPPLYEQUIPMENTOUTLETNODE
 Branch List,78,LOBBY_54_Z78_BRANCHLIST,LOBBY_54_Z78_AIRLOOP,Air,1
   Branch,1,LOBBY_54_Z78_MAINBRANCH,LOBBY_54_Z78_AIRLOOP,Air,LOBBY_54_Z78_SUPPLYINLET,LOBBY_54_Z78_SUPPLYEQUIPMENTOUTLETNODE
 Branch List,79,BREAK_ROOM_54_Z79_BRANCHLIST,BREAK_ROOM_54_Z79_AIRLOOP,Air,1
   Branch,1,BREAK_ROOM_54_Z79_MAINBRANCH,BREAK_ROOM_54_Z79_AIRLOOP,Air,BREAK_ROOM_54_Z79_SUPPLYINLET,BREAK_ROOM_54_Z79_SUPPLYEQUIPMENTOUTLETNODE
 Branch List,80,OFFICE_OPEN_54_Z80_BRANCHLIST,OFFICE_OPEN_54_Z80_AIRLOOP,Air,1
   Branch,1,OFFICE_OPEN_54_Z80_MAINBRANCH,OFFICE_OPEN_54_Z80_AIRLOOP,Air,OFFICE_OPEN_54_Z80_SUPPLYINLET,OFFICE_OPEN_54_Z80_SUPPLYEQUIPMENTOUTLETNODE
! ===============================================================
! <#Supply Air Paths>,<Number of Supply Air Paths>
 #Supply Air Paths,80
! <Supply Air Path>,<Supply Air Path Count>,<Supply Air Path Name>,<AirLoopHVAC Name>
! <#Components on Supply Air Path>,<Number of Components>
! <Supply Air Path Component>,<Component Count>,<Component Type>,<Component Name>,<AirLoopHVAC Name>
! <#Outlet Nodes on Supply Air Path Component>,<Number of Nodes>
! <Supply Air Path Component Nodes>,<Node Count>,<Component Type>,<Component Name>,<Inlet Node Name>,<Outlet Node Name>,<AirLoopHVAC Name>
 Supply Air Path,1,MECHANICAL_0_Z1,MECHANICAL_0_Z1_AIRLOOP
   #Components on Supply Air Path,1
   Supply Air Path Component,1,AIRLOOPHVAC:ZONESPLITTER,MECHANICAL_0_Z1_SUPPLYSPLITTER,MECHANICAL_0_Z1_AIRLOOP
     #Outlet Nodes on Supply Air Path Component,1
     Supply Air Path Component Nodes,1,AIRLOOPHVAC:ZONESPLITTER,MECHANICAL_0_Z1_SUPPLYSPLITTER,MECHANICAL_0_Z1_ZONEEQUIPMENTINLET,MECHANICAL_0_Z1_TERMINALINLET,MECHANICAL_0_Z1_AIRLOOP
! <#Nodes on Supply Air Path>,<Number of Nodes>
! <Supply Air Path Node>,<Node Type>,<Node Count>,<Node Name>,<AirLoopHVAC Name>
#Nodes on Supply Air Path,2
   Supply Air Path Node,Inlet Node,1,MECHANICAL_0_Z1_ZONEEQUIPMENTINLET,MECHANICAL_0_Z1_AIRLOOP
   Supply Air Path Node,Outlet Node,2,MECHANICAL_0_Z1_TERMINALINLET,MECHANICAL_0_Z1_AIRLOOP
 Supply Air Path,2,OFFICE_PRIVATE_0_Z2,OFFICE_PRIVATE_0_Z2_AIRLOOP
   #Components on Supply Air Path,1
   Supply Air Path Component,1,AIRLOOPHVAC:ZONESPLITTER,OFFICE_PRIVATE_0_Z2_SUPPLYSPLITTER,OFFICE_PRIVATE_0_Z2_AIRLOOP
     #Outlet Nodes on Supply Air Path Component,1
     Supply Air Path Component Nodes,1,AIRLOOPHVAC:ZONESPLITTER,OFFICE_PRIVATE_0_Z2_SUPPLYSPLITTER,OFFICE_PRIVATE_0_Z2_ZONEEQUIPMENTINLET,OFFICE_PRIVATE_0_Z2_TERMINALINLET,OFFICE_PRIVATE_0_Z2_AIRLOOP
! <#Nodes on Supply Air Path>,<Number of Nodes>
! <Supply Air Path Node>,<Node Type>,<Node Count>,<Node Name>,<AirLoopHVAC Name>
#Nodes on Supply Air Path,2
   Supply Air Path Node,Inlet Node,1,OFFICE_PRIVATE_0_Z2_ZONEEQUIPMENTINLET,OFFICE_PRIVATE_0_Z2_AIRLOOP
   Supply Air Path Node,Outlet Node,2,OFFICE_PRIVATE_0_Z2_TERMINALINLET,OFFICE_PRIVATE_0_Z2_AIRLOOP
 Supply Air Path,3,LOBBY_1_Z3,LOBBY_1_Z3_AIRLOOP
   #Components on Supply Air Path,1
   Supply Air Path Component,1,AIRLOOPHVAC:ZONESPLITTER,LOBBY_1_Z3_SUPPLYSPLITTER,LOBBY_1_Z3_AIRLOOP
     #Outlet Nodes on Supply Air Path Component,1
     Supply Air Path Component Nodes,1,AIRLOOPHVAC:ZONESPLITTER,LOBBY_1_Z3_SUPPLYSPLITTER,LOBBY_1_Z3_ZONEEQUIPMENTINLET,LOBBY_1_Z3_TERMINALINLET,LOBBY_1_Z3_AIRLOOP
! <#Nodes on Supply Air Path>,<Number of Nodes>
! <Supply Air Path Node>,<Node Type>,<Node Count>,<Node Name>,<AirLoopHVAC Name>
#Nodes on Supply Air Path,2
   Supply Air Path Node,Inlet Node,1,LOBBY_1_Z3_ZONEEQUIPMENTINLET,LOBBY_1_Z3_AIRLOOP
   Supply Air Path Node,Outlet Node,2,LOBBY_1_Z3_TERMINALINLET,LOBBY_1_Z3_AIRLOOP
 Supply Air Path,4,OFFICE_PRIVATE_1_Z4,OFFICE_PRIVATE_1_Z4_AIRLOOP
   #Components on Supply Air Path,1
   Supply Air Path Component,1,AIRLOOPHVAC:ZONESPLITTER,OFFICE_PRIVATE_1_Z4_SUPPLYSPLITTER,OFFICE_PRIVATE_1_Z4_AIRLOOP
     #Outlet Nodes on Supply Air Path Component,1
     Supply Air Path Component Nodes,1,AIRLOOPHVAC:ZONESPLITTER,OFFICE_PRIVATE_1_Z4_SUPPLYSPLITTER,OFFICE_PRIVATE_1_Z4_ZONEEQUIPMENTINLET,OFFICE_PRIVATE_1_Z4_TERMINALINLET,OFFICE_PRIVATE_1_Z4_AIRLOOP
! <#Nodes on Supply Air Path>,<Number of Nodes>
! <Supply Air Path Node>,<Node Type>,<Node Count>,<Node Name>,<AirLoopHVAC Name>
#Nodes on Supply Air Path,2
   Supply Air Path Node,Inlet Node,1,OFFICE_PRIVATE_1_Z4_ZONEEQUIPMENTINLET,OFFICE_PRIVATE_1_Z4_AIRLOOP
   Supply Air Path Node,Outlet Node,2,OFFICE_PRIVATE_1_Z4_TERMINALINLET,OFFICE_PRIVATE_1_Z4_AIRLOOP
 Supply Air Path,5,BREAK_ROOM_2_Z5,BREAK_ROOM_2_Z5_AIRLOOP
   #Components on Supply Air Path,1
   Supply Air Path Component,1,AIRLOOPHVAC:ZONESPLITTER,BREAK_ROOM_2_Z5_SUPPLYSPLITTER,BREAK_ROOM_2_Z5_AIRLOOP
     #Outlet Nodes on Supply Air Path Component,1
     Supply Air Path Component Nodes,1,AIRLOOPHVAC:ZONESPLITTER,BREAK_ROOM_2_Z5_SUPPLYSPLITTER,BREAK_ROOM_2_Z5_ZONEEQUIPMENTINLET,BREAK_ROOM_2_Z5_TERMINALINLET,BREAK_ROOM_2_Z5_AIRLOOP
! <#Nodes on Supply Air Path>,<Number of Nodes>
! <Supply Air Path Node>,<Node Type>,<Node Count>,<Node Name>,<AirLoopHVAC Name>
#Nodes on Supply Air Path,2
   Supply Air Path Node,Inlet Node,1,BREAK_ROOM_2_Z5_ZONEEQUIPMENTINLET,BREAK_ROOM_2_Z5_AIRLOOP
   Supply Air Path Node,Outlet Node,2,BREAK_ROOM_2_Z5_TERMINALINLET,BREAK_ROOM_2_Z5_AIRLOOP
 Supply Air Path,6,OFFICE_PRIVATE_2_Z6,OFFICE_PRIVATE_2_Z6_AIRLOOP
   #Components on Supply Air Path,1
   Supply Air Path Component,1,AIRLOOPHVAC:ZONESPLITTER,OFFICE_PRIVATE_2_Z6_SUPPLYSPLITTER,OFFICE_PRIVATE_2_Z6_AIRLOOP
     #Outlet Nodes on Supply Air Path Component,1
     Supply Air Path Component Nodes,1,AIRLOOPHVAC:ZONESPLITTER,OFFICE_PRIVATE_2_Z6_SUPPLYSPLITTER,OFFICE_PRIVATE_2_Z6_ZONEEQUIPMENTINLET,OFFICE_PRIVATE_2_Z6_TERMINALINLET,OFFICE_PRIVATE_2_Z6_AIRLOOP
! <#Nodes on Supply Air Path>,<Number of Nodes>
! <Supply Air Path Node>,<Node Type>,<Node Count>,<Node Name>,<AirLoopHVAC Name>
#Nodes on Supply Air Path,2
   Supply Air Path Node,Inlet Node,1,OFFICE_PRIVATE_2_Z6_ZONEEQUIPMENTINLET,OFFICE_PRIVATE_2_Z6_AIRLOOP
   Supply Air Path Node,Outlet Node,2,OFFICE_PRIVATE_2_Z6_TERMINALINLET,OFFICE_PRIVATE_2_Z6_AIRLOOP
 Supply Air Path,7,STORAGE_2_Z7,STORAGE_2_Z7_AIRLOOP
   #Components on Supply Air Path,1
   Supply Air Path Component,1,AIRLOOPHVAC:ZONESPLITTER,STORAGE_2_Z7_SUPPLYSPLITTER,STORAGE_2_Z7_AIRLOOP
     #Outlet Nodes on Supply Air Path Component,1
     Supply Air Path Component Nodes,1,AIRLOOPHVAC:ZONESPLITTER,STORAGE_2_Z7_SUPPLYSPLITTER,STORAGE_2_Z7_ZONEEQUIPMENTINLET,STORAGE_2_Z7_TERMINALINLET,STORAGE_2_Z7_AIRLOOP
! <#Nodes on Supply Air Path>,<Number of Nodes>
! <Supply Air Path Node>,<Node Type>,<Node Count>,<Node Name>,<AirLoopHVAC Name>
#Nodes on Supply Air Path,2
   Supply Air Path Node,Inlet Node,1,STORAGE_2_Z7_ZONEEQUIPMENTINLET,STORAGE_2_Z7_AIRLOOP
   Supply Air Path Node,Outlet Node,2,STORAGE_2_Z7_TERMINALINLET,STORAGE_2_Z7_AIRLOOP
 Supply Air Path,8,MECHANICAL_3_Z8,MECHANICAL_3_Z8_AIRLOOP
   #Components on Supply Air Path,1
   Supply Air Path Component,1,AIRLOOPHVAC:ZONESPLITTER,MECHANICAL_3_Z8_SUPPLYSPLITTER,MECHANICAL_3_Z8_AIRLOOP
     #Outlet Nodes on Supply Air Path Component,1
     Supply Air Path Component Nodes,1,AIRLOOPHVAC:ZONESPLITTER,MECHANICAL_3_Z8_SUPPLYSPLITTER,MECHANICAL_3_Z8_ZONEEQUIPMENTINLET,MECHANICAL_3_Z8_TERMINALINLET,MECHANICAL_3_Z8_AIRLOOP
! <#Nodes on Supply Air Path>,<Number of Nodes>
! <Supply Air Path Node>,<Node Type>,<Node Count>,<Node Name>,<AirLoopHVAC Name>
#Nodes on Supply Air Path,2
   Supply Air Path Node,Inlet Node,1,MECHANICAL_3_Z8_ZONEEQUIPMENTINLET,MECHANICAL_3_Z8_AIRLOOP
   Supply Air Path Node,Outlet Node,2,MECHANICAL_3_Z8_TERMINALINLET,MECHANICAL_3_Z8_AIRLOOP
 Supply Air Path,9,OFFICE_PRIVATE_3_Z9,OFFICE_PRIVATE_3_Z9_AIRLOOP
   #Components on Supply Air Path,1
   Supply Air Path Component,1,AIRLOOPHVAC:ZONESPLITTER,OFFICE_PRIVATE_3_Z9_SUPPLYSPLITTER,OFFICE_PRIVATE_3_Z9_AIRLOOP
     #Outlet Nodes on Supply Air Path Component,1
     Supply Air Path Component Nodes,1,AIRLOOPHVAC:ZONESPLITTER,OFFICE_PRIVATE_3_Z9_SUPPLYSPLITTER,OFFICE_PRIVATE_3_Z9_ZONEEQUIPMENTINLET,OFFICE_PRIVATE_3_Z9_TERMINALINLET,OFFICE_PRIVATE_3_Z9_AIRLOOP
! <#Nodes on Supply Air Path>,<Number of Nodes>
! <Supply Air Path Node>,<Node Type>,<Node Count>,<Node Name>,<AirLoopHVAC Name>
#Nodes on Supply Air Path,2
   Supply Air Path Node,Inlet Node,1,OFFICE_PRIVATE_3_Z9_ZONEEQUIPMENTINLET,OFFICE_PRIVATE_3_Z9_AIRLOOP
   Supply Air Path Node,Outlet Node,2,OFFICE_PRIVATE_3_Z9_TERMINALINLET,OFFICE_PRIVATE_3_Z9_AIRLOOP
 Supply Air Path,10,OFFICE_PRIVATE_4_Z10,OFFICE_PRIVATE_4_Z10_AIRLOOP
   #Components on Supply Air Path,1
   Supply Air Path Component,1,AIRLOOPHVAC:ZONESPLITTER,OFFICE_PRIVATE_4_Z10_SUPPLYSPLITTER,OFFICE_PRIVATE_4_Z10_AIRLOOP
     #Outlet Nodes on Supply Air Path Component,1
     Supply Air Path Component Nodes,1,AIRLOOPHVAC:ZONESPLITTER,OFFICE_PRIVATE_4_Z10_SUPPLYSPLITTER,OFFICE_PRIVATE_4_Z10_ZONEEQUIPMENTINLET,OFFICE_PRIVATE_4_Z10_TERMINALINLET,OFFICE_PRIVATE_4_Z10_AIRLOOP
! <#Nodes on Supply Air Path>,<Number of Nodes>
! <Supply Air Path Node>,<Node Type>,<Node Count>,<Node Name>,<AirLoopHVAC Name>
#Nodes on Supply Air Path,2
   Supply Air Path Node,Inlet Node,1,OFFICE_PRIVATE_4_Z10_ZONEEQUIPMENTINLET,OFFICE_PRIVATE_4_Z10_AIRLOOP
   Supply Air Path Node,Outlet Node,2,OFFICE_PRIVATE_4_Z10_TERMINALINLET,OFFICE_PRIVATE_4_Z10_AIRLOOP
 Supply Air Path,11,STORAGE_4_Z11,STORAGE_4_Z11_AIRLOOP
   #Components on Supply Air Path,1
   Supply Air Path Component,1,AIRLOOPHVAC:ZONESPLITTER,STORAGE_4_Z11_SUPPLYSPLITTER,STORAGE_4_Z11_AIRLOOP
     #Outlet Nodes on Supply Air Path Component,1
     Supply Air Path Component Nodes,1,AIRLOOPHVAC:ZONESPLITTER,STORAGE_4_Z11_SUPPLYSPLITTER,STORAGE_4_Z11_ZONEEQUIPMENTINLET,STORAGE_4_Z11_TERMINALINLET,STORAGE_4_Z11_AIRLOOP
! <#Nodes on Supply Air Path>,<Number of Nodes>
! <Supply Air Path Node>,<Node Type>,<Node Count>,<Node Name>,<AirLoopHVAC Name>
#Nodes on Supply Air Path,2
   Supply Air Path Node,Inlet Node,1,STORAGE_4_Z11_ZONEEQUIPMENTINLET,STORAGE_4_Z11_AIRLOOP
   Supply Air Path Node,Outlet Node,2,STORAGE_4_Z11_TERMINALINLET,STORAGE_4_Z11_AIRLOOP
 Supply Air Path,12,BREAK_ROOM_6_Z12,BREAK_ROOM_6_Z12_AIRLOOP
   #Components on Supply Air Path,1
   Supply Air Path Component,1,AIRLOOPHVAC:ZONESPLITTER,BREAK_ROOM_6_Z12_SUPPLYSPLITTER,BREAK_ROOM_6_Z12_AIRLOOP
     #Outlet Nodes on Supply Air Path Component,1
     Supply Air Path Component Nodes,1,AIRLOOPHVAC:ZONESPLITTER,BREAK_ROOM_6_Z12_SUPPLYSPLITTER,BREAK_ROOM_6_Z12_ZONEEQUIPMENTINLET,BREAK_ROOM_6_Z12_TERMINALINLET,BREAK_ROOM_6_Z12_AIRLOOP
! <#Nodes on Supply Air Path>,<Number of Nodes>
! <Supply Air Path Node>,<Node Type>,<Node Count>,<Node Name>,<AirLoopHVAC Name>
#Nodes on Supply Air Path,2
   Supply Air Path Node,Inlet Node,1,BREAK_ROOM_6_Z12_ZONEEQUIPMENTINLET,BREAK_ROOM_6_Z12_AIRLOOP
   Supply Air Path Node,Outlet Node,2,BREAK_ROOM_6_Z12_TERMINALINLET,BREAK_ROOM_6_Z12_AIRLOOP
 Supply Air Path,13,BREAK_ROOM_8_Z13,BREAK_ROOM_8_Z13_AIRLOOP
   #Components on Supply Air Path,1
   Supply Air Path Component,1,AIRLOOPHVAC:ZONESPLITTER,BREAK_ROOM_8_Z13_SUPPLYSPLITTER,BREAK_ROOM_8_Z13_AIRLOOP
     #Outlet Nodes on Supply Air Path Component,1
     Supply Air Path Component Nodes,1,AIRLOOPHVAC:ZONESPLITTER,BREAK_ROOM_8_Z13_SUPPLYSPLITTER,BREAK_ROOM_8_Z13_ZONEEQUIPMENTINLET,BREAK_ROOM_8_Z13_TERMINALINLET,BREAK_ROOM_8_Z13_AIRLOOP
! <#Nodes on Supply Air Path>,<Number of Nodes>
! <Supply Air Path Node>,<Node Type>,<Node Count>,<Node Name>,<AirLoopHVAC Name>
#Nodes on Supply Air Path,2
   Supply Air Path Node,Inlet Node,1,BREAK_ROOM_8_Z13_ZONEEQUIPMENTINLET,BREAK_ROOM_8_Z13_AIRLOOP
   Supply Air Path Node,Outlet Node,2,BREAK_ROOM_8_Z13_TERMINALINLET,BREAK_ROOM_8_Z13_AIRLOOP
 Supply Air Path,14,STORAGE_8_Z14,STORAGE_8_Z14_AIRLOOP
   #Components on Supply Air Path,1
   Supply Air Path Component,1,AIRLOOPHVAC:ZONESPLITTER,STORAGE_8_Z14_SUPPLYSPLITTER,STORAGE_8_Z14_AIRLOOP
     #Outlet Nodes on Supply Air Path Component,1
     Supply Air Path Component Nodes,1,AIRLOOPHVAC:ZONESPLITTER,STORAGE_8_Z14_SUPPLYSPLITTER,STORAGE_8_Z14_ZONEEQUIPMENTINLET,STORAGE_8_Z14_TERMINALINLET,STORAGE_8_Z14_AIRLOOP
! <#Nodes on Supply Air Path>,<Number of Nodes>
! <Supply Air Path Node>,<Node Type>,<Node Count>,<Node Name>,<AirLoopHVAC Name>
#Nodes on Supply Air Path,2
   Supply Air Path Node,Inlet Node,1,STORAGE_8_Z14_ZONEEQUIPMENTINLET,STORAGE_8_Z14_AIRLOOP
   Supply Air Path Node,Outlet Node,2,STORAGE_8_Z14_TERMINALINLET,STORAGE_8_Z14_AIRLOOP
 Supply Air Path,15,BREAK_ROOM_11_Z15,BREAK_ROOM_11_Z15_AIRLOOP
   #Components on Supply Air Path,1
   Supply Air Path Component,1,AIRLOOPHVAC:ZONESPLITTER,BREAK_ROOM_11_Z15_SUPPLYSPLITTER,BREAK_ROOM_11_Z15_AIRLOOP
     #Outlet Nodes on Supply Air Path Component,1
     Supply Air Path Component Nodes,1,AIRLOOPHVAC:ZONESPLITTER,BREAK_ROOM_11_Z15_SUPPLYSPLITTER,BREAK_ROOM_11_Z15_ZONEEQUIPMENTINLET,BREAK_ROOM_11_Z15_TERMINALINLET,BREAK_ROOM_11_Z15_AIRLOOP
! <#Nodes on Supply Air Path>,<Number of Nodes>
! <Supply Air Path Node>,<Node Type>,<Node Count>,<Node Name>,<AirLoopHVAC Name>
#Nodes on Supply Air Path,2
   Supply Air Path Node,Inlet Node,1,BREAK_ROOM_11_Z15_ZONEEQUIPMENTINLET,BREAK_ROOM_11_Z15_AIRLOOP
   Supply Air Path Node,Outlet Node,2,BREAK_ROOM_11_Z15_TERMINALINLET,BREAK_ROOM_11_Z15_AIRLOOP
 Supply Air Path,16,CONFERENCE_13_Z16,CONFERENCE_13_Z16_AIRLOOP
   #Components on Supply Air Path,1
   Supply Air Path Component,1,AIRLOOPHVAC:ZONESPLITTER,CONFERENCE_13_Z16_SUPPLYSPLITTER,CONFERENCE_13_Z16_AIRLOOP
     #Outlet Nodes on Supply Air Path Component,1
     Supply Air Path Component Nodes,1,AIRLOOPHVAC:ZONESPLITTER,CONFERENCE_13_Z16_SUPPLYSPLITTER,CONFERENCE_13_Z16_ZONEEQUIPMENTINLET,CONFERENCE_13_Z16_TERMINALINLET,CONFERENCE_13_Z16_AIRLOOP
! <#Nodes on Supply Air Path>,<Number of Nodes>
! <Supply Air Path Node>,<Node Type>,<Node Count>,<Node Name>,<AirLoopHVAC Name>
#Nodes on Supply Air Path,2
   Supply Air Path Node,Inlet Node,1,CONFERENCE_13_Z16_ZONEEQUIPMENTINLET,CONFERENCE_13_Z16_AIRLOOP
   Supply Air Path Node,Outlet Node,2,CONFERENCE_13_Z16_TERMINALINLET,CONFERENCE_13_Z16_AIRLOOP
 Supply Air Path,17,STORAGE_13_Z17,STORAGE_13_Z17_AIRLOOP
   #Components on Supply Air Path,1
   Supply Air Path Component,1,AIRLOOPHVAC:ZONESPLITTER,STORAGE_13_Z17_SUPPLYSPLITTER,STORAGE_13_Z17_AIRLOOP
     #Outlet Nodes on Supply Air Path Component,1
     Supply Air Path Component Nodes,1,AIRLOOPHVAC:ZONESPLITTER,STORAGE_13_Z17_SUPPLYSPLITTER,STORAGE_13_Z17_ZONEEQUIPMENTINLET,STORAGE_13_Z17_TERMINALINLET,STORAGE_13_Z17_AIRLOOP
! <#Nodes on Supply Air Path>,<Number of Nodes>
! <Supply Air Path Node>,<Node Type>,<Node Count>,<Node Name>,<AirLoopHVAC Name>
#Nodes on Supply Air Path,2
   Supply Air Path Node,Inlet Node,1,STORAGE_13_Z17_ZONEEQUIPMENTINLET,STORAGE_13_Z17_AIRLOOP
   Supply Air Path Node,Outlet Node,2,STORAGE_13_Z17_TERMINALINLET,STORAGE_13_Z17_AIRLOOP
 Supply Air Path,18,LOBBY_14_Z18,LOBBY_14_Z18_AIRLOOP
   #Components on Supply Air Path,1
[...]
 Non-Parent Node Connection,LOBBY_1_Z3_SUPPLYINLET,COIL:COOLING:DX:SINGLESPEED,LOBBY_1_Z3_COOLINGCOILDX,Inlet,1
 Non-Parent Node Connection,LOBBY_1_Z3_COOLC-HEATCNODE,COIL:COOLING:DX:SINGLESPEED,LOBBY_1_Z3_COOLINGCOILDX,Outlet,1
 Non-Parent Node Connection,OFFICE_PRIVATE_1_Z4_SUPPLYINLET,COIL:COOLING:DX:SINGLESPEED,OFFICE_PRIVATE_1_Z4_COOLINGCOILDX,Inlet,1
 Non-Parent Node Connection,OFFICE_PRIVATE_1_Z4_COOLC-HEATCNODE,COIL:COOLING:DX:SINGLESPEED,OFFICE_PRIVATE_1_Z4_COOLINGCOILDX,Outlet,1
 Non-Parent Node Connection,BREAK_ROOM_2_Z5_SUPPLYINLET,COIL:COOLING:DX:SINGLESPEED,BREAK_ROOM_2_Z5_COOLINGCOILDX,Inlet,1
 Non-Parent Node Connection,BREAK_ROOM_2_Z5_COOLC-HEATCNODE,COIL:COOLING:DX:SINGLESPEED,BREAK_ROOM_2_Z5_COOLINGCOILDX,Outlet,1
 Non-Parent Node Connection,OFFICE_PRIVATE_2_Z6_SUPPLYINLET,COIL:COOLING:DX:SINGLESPEED,OFFICE_PRIVATE_2_Z6_COOLINGCOILDX,Inlet,1
 Non-Parent Node Connection,OFFICE_PRIVATE_2_Z6_COOLC-HEATCNODE,COIL:COOLING:DX:SINGLESPEED,OFFICE_PRIVATE_2_Z6_COOLINGCOILDX,Outlet,1
 Non-Parent Node Connection,STORAGE_2_Z7_SUPPLYINLET,COIL:COOLING:DX:SINGLESPEED,STORAGE_2_Z7_COOLINGCOILDX,Inlet,1
 Non-Parent Node Connection,STORAGE_2_Z7_COOLC-HEATCNODE,COIL:COOLING:DX:SINGLESPEED,STORAGE_2_Z7_COOLINGCOILDX,Outlet,1
 Non-Parent Node Connection,MECHANICAL_3_Z8_SUPPLYINLET,COIL:COOLING:DX:SINGLESPEED,MECHANICAL_3_Z8_COOLINGCOILDX,Inlet,1
 Non-Parent Node Connection,MECHANICAL_3_Z8_COOLC-HEATCNODE,COIL:COOLING:DX:SINGLESPEED,MECHANICAL_3_Z8_COOLINGCOILDX,Outlet,1
 Non-Parent Node Connection,OFFICE_PRIVATE_3_Z9_SUPPLYINLET,COIL:COOLING:DX:SINGLESPEED,OFFICE_PRIVATE_3_Z9_COOLINGCOILDX,Inlet,1
 Non-Parent Node Connection,OFFICE_PRIVATE_3_Z9_COOLC-HEATCNODE,COIL:COOLING:DX:SINGLESPEED,OFFICE_PRIVATE_3_Z9_COOLINGCOILDX,Outlet,1
 Non-Parent Node Connection,OFFICE_PRIVATE_4_Z10_SUPPLYINLET,COIL:COOLING:DX:SINGLESPEED,OFFICE_PRIVATE_4_Z10_COOLINGCOILDX,Inlet,1
 Non-Parent Node Connection,OFFICE_PRIVATE_4_Z10_COOLC-HEATCNODE,COIL:COOLING:DX:SINGLESPEED,OFFICE_PRIVATE_4_Z10_COOLINGCOILDX,Outlet,1
 Non-Parent Node Connection,STORAGE_4_Z11_SUPPLYINLET,COIL:COOLING:DX:SINGLESPEED,STORAGE_4_Z11_COOLINGCOILDX,Inlet,1
 Non-Parent Node Connection,STORAGE_4_Z11_COOLC-HEATCNODE,COIL:COOLING:DX:SINGLESPEED,STORAGE_4_Z11_COOLINGCOILDX,Outlet,1
 Non-Parent Node Connection,BREAK_ROOM_6_Z12_SUPPLYINLET,COIL:COOLING:DX:SINGLESPEED,BREAK_ROOM_6_Z12_COOLINGCOILDX,Inlet,1
 Non-Parent Node Connection,BREAK_ROOM_6_Z12_COOLC-HEATCNODE,COIL:COOLING:DX:SINGLESPEED,BREAK_ROOM_6_Z12_COOLINGCOILDX,Outlet,1
 Non-Parent Node Connection,BREAK_ROOM_8_Z13_SUPPLYINLET,COIL:COOLING:DX:SINGLESPEED,BREAK_ROOM_8_Z13_COOLINGCOILDX,Inlet,1
 Non-Parent Node Connection,BREAK_ROOM_8_Z13_COOLC-HEATCNODE,COIL:COOLING:DX:SINGLESPEED,BREAK_ROOM_8_Z13_COOLINGCOILDX,Outlet,1
 Non-Parent Node Connection,STORAGE_8_Z14_SUPPLYINLET,COIL:COOLING:DX:SINGLESPEED,STORAGE_8_Z14_COOLINGCOILDX,Inlet,1
 Non-Parent Node Connection,STORAGE_8_Z14_COOLC-HEATCNODE,COIL:COOLING:DX:SINGLESPEED,STORAGE_8_Z14_COOLINGCOILDX,Outlet,1
 Non-Parent Node Connection,BREAK_ROOM_11_Z15_SUPPLYINLET,COIL:COOLING:DX:SINGLESPEED,BREAK_ROOM_11_Z15_COOLINGCOILDX,Inlet,1
 Non-Parent Node Connection,BREAK_ROOM_11_Z15_COOLC-HEATCNODE,COIL:COOLING:DX:SINGLESPEED,BREAK_ROOM_11_Z15_COOLINGCOILDX,Outlet,1
 Non-Parent Node Connection,CONFERENCE_13_Z16_SUPPLYINLET,COIL:COOLING:DX:SINGLESPEED,CONFERENCE_13_Z16_COOLINGCOILDX,Inlet,1
 Non-Parent Node Connection,CONFERENCE_13_Z16_COOLC-HEATCNODE,COIL:COOLING:DX:SINGLESPEED,CONFERENCE_13_Z16_COOLINGCOILDX,Outlet,1
 Non-Parent Node Connection,STORAGE_13_Z17_SUPPLYINLET,COIL:COOLING:DX:SINGLESPEED,STORAGE_13_Z17_COOLINGCOILDX,Inlet,1
 Non-Parent Node Connection,STORAGE_13_Z17_COOLC-HEATCNODE,COIL:COOLING:DX:SINGLESPEED,STORAGE_13_Z17_COOLINGCOILDX,Outlet,1
 Non-Parent Node Connection,LOBBY_14_Z18_SUPPLYINLET,COIL:COOLING:DX:SINGLESPEED,LOBBY_14_Z18_COOLINGCOILDX,Inlet,1
 Non-Parent Node Connection,LOBBY_14_Z18_COOLC-HEATCNODE,COIL:COOLING:DX:SINGLESPEED,LOBBY_14_Z18_COOLINGCOILDX,Outlet,1
 Non-Parent Node Connection,CONFERENCE_14_Z19_SUPPLYINLET,COIL:COOLING:DX:SINGLESPEED,CONFERENCE_14_Z19_COOLINGCOILDX,Inlet,1
 Non-Parent Node Connection,CONFERENCE_14_Z19_COOLC-HEATCNODE,COIL:COOLING:DX:SINGLESPEED,CONFERENCE_14_Z19_COOLINGCOILDX,Outlet,1
 Non-Parent Node Connection,BREAK_ROOM_14_Z20_SUPPLYINLET,COIL:COOLING:DX:SINGLESPEED,BREAK_ROOM_14_Z20_COOLINGCOILDX,Inlet,1
 Non-Parent Node Connection,BREAK_ROOM_14_Z20_COOLC-HEATCNODE,COIL:COOLING:DX:SINGLESPEED,BREAK_ROOM_14_Z20_COOLINGCOILDX,Outlet,1
 Non-Parent Node Connection,MECHANICAL_14_Z21_SUPPLYINLET,COIL:COOLING:DX:SINGLESPEED,MECHANICAL_14_Z21_COOLINGCOILDX,Inlet,1
 Non-Parent Node Connection,MECHANICAL_14_Z21_COOLC-HEATCNODE,COIL:COOLING:DX:SINGLESPEED,MECHANICAL_14_Z21_COOLINGCOILDX,Outlet,1
 Non-Parent Node Connection,CONFERENCE_15_Z22_SUPPLYINLET,COIL:COOLING:DX:SINGLESPEED,CONFERENCE_15_Z22_COOLINGCOILDX,Inlet,1
 Non-Parent Node Connection,CONFERENCE_15_Z22_COOLC-HEATCNODE,COIL:COOLING:DX:SINGLESPEED,CONFERENCE_15_Z22_COOLINGCOILDX,Outlet,1
 Non-Parent Node Connection,STORAGE_15_Z23_SUPPLYINLET,COIL:COOLING:DX:SINGLESPEED,STORAGE_15_Z23_COOLINGCOILDX,Inlet,1
 Non-Parent Node Connection,STORAGE_15_Z23_COOLC-HEATCNODE,COIL:COOLING:DX:SINGLESPEED,STORAGE_15_Z23_COOLINGCOILDX,Outlet,1
 Non-Parent Node Connection,BREAK_ROOM_16_Z24_SUPPLYINLET,COIL:COOLING:DX:SINGLESPEED,BREAK_ROOM_16_Z24_COOLINGCOILDX,Inlet,1
 Non-Parent Node Connection,BREAK_ROOM_16_Z24_COOLC-HEATCNODE,COIL:COOLING:DX:SINGLESPEED,BREAK_ROOM_16_Z24_COOLINGCOILDX,Outlet,1
 Non-Parent Node Connection,OFFICE_OPEN_16_Z25_SUPPLYINLET,COIL:COOLING:DX:SINGLESPEED,OFFICE_OPEN_16_Z25_COOLINGCOILDX,Inlet,1
 Non-Parent Node Connection,OFFICE_OPEN_16_Z25_COOLC-HEATCNODE,COIL:COOLING:DX:SINGLESPEED,OFFICE_OPEN_16_Z25_COOLINGCOILDX,Outlet,1
 Non-Parent Node Connection,BREAK_ROOM_18_Z26_SUPPLYINLET,COIL:COOLING:DX:SINGLESPEED,BREAK_ROOM_18_Z26_COOLINGCOILDX,Inlet,1
 Non-Parent Node Connection,BREAK_ROOM_18_Z26_COOLC-HEATCNODE,COIL:COOLING:DX:SINGLESPEED,BREAK_ROOM_18_Z26_COOLINGCOILDX,Outlet,1
 Non-Parent Node Connection,OFFICE_PRIVATE_18_Z27_SUPPLYINLET,COIL:COOLING:DX:SINGLESPEED,OFFICE_PRIVATE_18_Z27_COOLINGCOILDX,Inlet,1
 Non-Parent Node Connection,OFFICE_PRIVATE_18_Z27_COOLC-HEATCNODE,COIL:COOLING:DX:SINGLESPEED,OFFICE_PRIVATE_18_Z27_COOLINGCOILDX,Outlet,1
 Non-Parent Node Connection,CONFERENCE_19_Z28_SUPPLYINLET,COIL:COOLING:DX:SINGLESPEED,CONFERENCE_19_Z28_COOLINGCOILDX,Inlet,1
 Non-Parent Node Connection,CONFERENCE_19_Z28_COOLC-HEATCNODE,COIL:COOLING:DX:SINGLESPEED,CONFERENCE_19_Z28_COOLINGCOILDX,Outlet,1
 Non-Parent Node Connection,MECHANICAL_19_Z29_SUPPLYINLET,COIL:COOLING:DX:SINGLESPEED,MECHANICAL_19_Z29_COOLINGCOILDX,Inlet,1
 Non-Parent Node Connection,MECHANICAL_19_Z29_COOLC-HEATCNODE,COIL:COOLING:DX:SINGLESPEED,MECHANICAL_19_Z29_COOLINGCOILDX,Outlet,1
 Non-Parent Node Connection,OFFICE_PRIVATE_19_Z30_SUPPLYINLET,COIL:COOLING:DX:SINGLESPEED,OFFICE_PRIVATE_19_Z30_COOLINGCOILDX,Inlet,1
 Non-Parent Node Connection,OFFICE_PRIVATE_19_Z30_COOLC-HEATCNODE,COIL:COOLING:DX:SINGLESPEED,OFFICE_PRIVATE_19_Z30_COOLINGCOILDX,Outlet,1
 Non-Parent Node Connection,STORAGE_22_Z31_SUPPLYINLET,COIL:COOLING:DX:SINGLESPEED,STORAGE_22_Z31_COOLINGCOILDX,Inlet,1
 Non-Parent Node Connection,STORAGE_22_Z31_COOLC-HEATCNODE,COIL:COOLING:DX:SINGLESPEED,STORAGE_22_Z31_COOLINGCOILDX,Outlet,1
 Non-Parent Node Connection,STORAGE_24_Z32_SUPPLYINLET,COIL:COOLING:DX:SINGLESPEED,STORAGE_24_Z32_COOLINGCOILDX,Inlet,1
 Non-Parent Node Connection,STORAGE_24_Z32_COOLC-HEATCNODE,COIL:COOLING:DX:SINGLESPEED,STORAGE_24_Z32_COOLINGCOILDX,Outlet,1
 Non-Parent Node Connection,BREAK_ROOM_25_Z33_SUPPLYINLET,COIL:COOLING:DX:SINGLESPEED,BREAK_ROOM_25_Z33_COOLINGCOILDX,Inlet,1
 Non-Parent Node Connection,BREAK_ROOM_25_Z33_COOLC-HEATCNODE,COIL:COOLING:DX:SINGLESPEED,BREAK_ROOM_25_Z33_COOLINGCOILDX,Outlet,1
 Non-Parent Node Connection,OFFICE_PRIVATE_25_Z34_SUPPLYINLET,COIL:COOLING:DX:SINGLESPEED,OFFICE_PRIVATE_25_Z34_COOLINGCOILDX,Inlet,1
 Non-Parent Node Connection,OFFICE_PRIVATE_25_Z34_COOLC-HEATCNODE,COIL:COOLING:DX:SINGLESPEED,OFFICE_PRIVATE_25_Z34_COOLINGCOILDX,Outlet,1
 Non-Parent Node Connection,STORAGE_25_Z35_SUPPLYINLET,COIL:COOLING:DX:SINGLESPEED,STORAGE_25_Z35_COOLINGCOILDX,Inlet,1
 Non-Parent Node Connection,STORAGE_25_Z35_COOLC-HEATCNODE,COIL:COOLING:DX:SINGLESPEED,STORAGE_25_Z35_COOLINGCOILDX,Outlet,1
 Non-Parent Node Connection,STORAGE_26_Z36_SUPPLYINLET,COIL:COOLING:DX:SINGLESPEED,STORAGE_26_Z36_COOLINGCOILDX,Inlet,1
 Non-Parent Node Connection,STORAGE_26_Z36_COOLC-HEATCNODE,COIL:COOLING:DX:SINGLESPEED,STORAGE_26_Z36_COOLINGCOILDX,Outlet,1
 Non-Parent Node Connection,CONFERENCE_27_Z37_SUPPLYINLET,COIL:COOLING:DX:SINGLESPEED,CONFERENCE_27_Z37_COOLINGCOILDX,Inlet,1
 Non-Parent Node Connection,CONFERENCE_27_Z37_COOLC-HEATCNODE,COIL:COOLING:DX:SINGLESPEED,CONFERENCE_27_Z37_COOLINGCOILDX,Outlet,1
 Non-Parent Node Connection,BREAK_ROOM_27_Z38_SUPPLYINLET,COIL:COOLING:DX:SINGLESPEED,BREAK_ROOM_27_Z38_COOLINGCOILDX,Inlet,1
 Non-Parent Node Connection,BREAK_ROOM_27_Z38_COOLC-HEATCNODE,COIL:COOLING:DX:SINGLESPEED,BREAK_ROOM_27_Z38_COOLINGCOILDX,Outlet,1
 Non-Parent Node Connection,OFFICE_PRIVATE_28_Z39_SUPPLYINLET,COIL:COOLING:DX:SINGLESPEED,OFFICE_PRIVATE_28_Z39_COOLINGCOILDX,Inlet,1
 Non-Parent Node Connection,OFFICE_PRIVATE_28_Z39_COOLC-HEATCNODE,COIL:COOLING:DX:SINGLESPEED,OFFICE_PRIVATE_28_Z39_COOLINGCOILDX,Outlet,1
 Non-Parent Node Connection,BREAK_ROOM_29_Z40_SUPPLYINLET,COIL:COOLING:DX:SINGLESPEED,BREAK_ROOM_29_Z40_COOLINGCOILDX,Inlet,1
 Non-Parent Node Connection,BREAK_ROOM_29_Z40_COOLC-HEATCNODE,COIL:COOLING:DX:SINGLESPEED,BREAK_ROOM_29_Z40_COOLINGCOILDX,Outlet,1
 Non-Parent Node Connection,STORAGE_29_Z41_SUPPLYINLET,COIL:COOLING:DX:SINGLESPEED,STORAGE_29_Z41_COOLINGCOILDX,Inlet,1
 Non-Parent Node Connection,STORAGE_29_Z41_COOLC-HEATCNODE,COIL:COOLING:DX:SINGLESPEED,STORAGE_29_Z41_COOLINGCOILDX,Outlet,1
 Non-Parent Node Connection,CONFERENCE_30_Z42_SUPPLYINLET,COIL:COOLING:DX:SINGLESPEED,CONFERENCE_30_Z42_COOLINGCOILDX,Inlet,1
 Non-Parent Node Connection,CONFERENCE_30_Z42_COOLC-HEATCNODE,COIL:COOLING:DX:SINGLESPEED,CONFERENCE_30_Z42_COOLINGCOILDX,Outlet,1
 Non-Parent Node Connection,STORAGE_31_Z43_SUPPLYINLET,COIL:COOLING:DX:SINGLESPEED,STORAGE_31_Z43_COOLINGCOILDX,Inlet,1
 Non-Parent Node Connection,STORAGE_31_Z43_COOLC-HEATCNODE,COIL:COOLING:DX:SINGLESPEED,STORAGE_31_Z43_COOLINGCOILDX,Outlet,1
 Non-Parent Node Connection,BREAK_ROOM_32_Z44_SUPPLYINLET,COIL:COOLING:DX:SINGLESPEED,BREAK_ROOM_32_Z44_COOLINGCOILDX,Inlet,1
 Non-Parent Node Connection,BREAK_ROOM_32_Z44_COOLC-HEATCNODE,COIL:COOLING:DX:SINGLESPEED,BREAK_ROOM_32_Z44_COOLINGCOILDX,Outlet,1
 Non-Parent Node Connection,MECHANICAL_32_Z45_SUPPLYINLET,COIL:COOLING:DX:SINGLESPEED,MECHANICAL_32_Z45_COOLINGCOILDX,Inlet,1
 Non-Parent Node Connection,MECHANICAL_32_Z45_COOLC-HEATCNODE,COIL:COOLING:DX:SINGLESPEED,MECHANICAL_32_Z45_COOLINGCOILDX,Outlet,1
 Non-Parent Node Connection,STORAGE_32_Z46_SUPPLYINLET,COIL:COOLING:DX:SINGLESPEED,STORAGE_32_Z46_COOLINGCOILDX,Inlet,1
 Non-Parent Node Connection,STORAGE_32_Z46_COOLC-HEATCNODE,COIL:COOLING:DX:SINGLESPEED,STORAGE_32_Z46_COOLINGCOILDX,Outlet,1
 Non-Parent Node Connection,OFFICE_PRIVATE_33_Z47_SUPPLYINLET,COIL:COOLING:DX:SINGLESPEED,OFFICE_PRIVATE_33_Z47_COOLINGCOILDX,Inlet,1
 Non-Parent Node Connection,OFFICE_PRIVATE_33_Z47_COOLC-HEATCNODE,COIL:COOLING:DX:SINGLESPEED,OFFICE_PRIVATE_33_Z47_COOLINGCOILDX,Outlet,1
 Non-Parent Node Connection,OFFICE_PRIVATE_34_Z48_SUPPLYINLET,COIL:COOLING:DX:SINGLESPEED,OFFICE_PRIVATE_34_Z48_COOLINGCOILDX,Inlet,1
 Non-Parent Node Connection,OFFICE_PRIVATE_34_Z48_COOLC-HEATCNODE,COIL:COOLING:DX:SINGLESPEED,OFFICE_PRIVATE_34_Z48_COOLINGCOILDX,Outlet,1
 Non-Parent Node Connection,STORAGE_34_Z49_SUPPLYINLET,COIL:COOLING:DX:SINGLESPEED,STORAGE_34_Z49_COOLINGCOILDX,Inlet,1
 Non-Parent Node Connection,STORAGE_34_Z49_COOLC-HEATCNODE,COIL:COOLING:DX:SINGLESPEED,STORAGE_34_Z49_COOLINGCOILDX,Outlet,1
 Non-Parent Node Connection,MECHANICAL_35_Z50_SUPPLYINLET,COIL:COOLING:DX:SINGLESPEED,MECHANICAL_35_Z50_COOLINGCOILDX,Inlet,1
 Non-Parent Node Connection,MECHANICAL_35_Z50_COOLC-HEATCNODE,COIL:COOLING:DX:SINGLESPEED,MECHANICAL_35_Z50_COOLINGCOILDX,Outlet,1
 Non-Parent Node Connection,CONFERENCE_36_Z51_SUPPLYINLET,COIL:COOLING:DX:SINGLESPEED,CONFERENCE_36_Z51_COOLINGCOILDX,Inlet,1
 Non-Parent Node Connection,CONFERENCE_36_Z51_COOLC-HEATCNODE,COIL:COOLING:DX:SINGLESPEED,CONFERENCE_36_Z51_COOLINGCOILDX,Outlet,1
 Non-Parent Node Connection,OFFICE_PRIVATE_36_Z52_SUPPLYINLET,COIL:COOLING:DX:SINGLESPEED,OFFICE_PRIVATE_36_Z52_COOLINGCOILDX,Inlet,1
 Non-Parent Node Connection,OFFICE_PRIVATE_36_Z52_COOLC-HEATCNODE,COIL:COOLING:DX:SINGLESPEED,OFFICE_PRIVATE_36_Z52_COOLINGCOILDX,Outlet,1
 Non-Parent Node Connection,OFFICE_PRIVATE_37_Z53_SUPPLYINLET,COIL:COOLING:DX:SINGLESPEED,OFFICE_PRIVATE_37_Z53_COOLINGCOILDX,Inlet,1
 Non-Parent Node Connection,OFFICE_PRIVATE_37_Z53_COOLC-HEATCNODE,COIL:COOLING:DX:SINGLESPEED,OFFICE_PRIVATE_37_Z53_COOLINGCOILDX,Outlet,1
 Non-Parent Node Connection,STORAGE_38_Z54_SUPPLYINLET,COIL:COOLING:DX:SINGLESPEED,STORAGE_38_Z54_COOLINGCOILDX,Inlet,1
 Non-Parent Node Connection,STORAGE_38_Z54_COOLC-HEATCNODE,COIL:COOLING:DX:SINGLESPEED,STORAGE_38_Z54_COOLINGCOILDX,Outlet,1
 Non-Parent Node Connection,CONFERENCE_39_Z55_SUPPLYINLET,COIL:COOLING:DX:SINGLESPEED,CONFERENCE_39_Z55_COOLINGCOILDX,Inlet,1
 Non-Parent Node Connection,CONFERENCE_39_Z55_COOLC-HEATCNODE,COIL:COOLING:DX:SINGLESPEED,CONFERENCE_39_Z55_COOLINGCOILDX,Outlet,1
 Non-Parent Node Connection,BREAK_ROOM_40_Z56_SUPPLYINLET,COIL:COOLING:DX:SINGLESPEED,BREAK_ROOM_40_Z56_COOLINGCOILDX,Inlet,1
 Non-Parent Node Connection,BREAK_ROOM_40_Z56_COOLC-HEATCNODE,COIL:COOLING:DX:SINGLESPEED,BREAK_ROOM_40_Z56_COOLINGCOILDX,Outlet,1
 Non-Parent Node Connection,MECHANICAL_40_Z57_SUPPLYINLET,COIL:COOLING:DX:SINGLESPEED,MECHANICAL_40_Z57_COOLINGCOILDX,Inlet,1
 Non-Parent Node Connection,MECHANICAL_40_Z57_COOLC-HEATCNODE,COIL:COOLING:DX:SINGLESPEED,MECHANICAL_40_Z57_COOLINGCOILDX,Outlet,1
 Non-Parent Node Connection,MECHANICAL_41_Z58_SUPPLYINLET,COIL:COOLING:DX:SINGLESPEED,MECHANICAL_41_Z58_COOLINGCOILDX,Inlet,1
 Non-Parent Node Connection,MECHANICAL_41_Z58_COOLC-HEATCNODE,COIL:COOLING:DX:SINGLESPEED,MECHANICAL_41_Z58_COOLINGCOILDX,Outlet,1
 Non-Parent Node Connection,OFFICE_PRIVATE_41_Z59_SUPPLYINLET,COIL:COOLING:DX:SINGLESPEED,OFFICE_PRIVATE_41_Z59_COOLINGCOILDX,Inlet,1
 Non-Parent Node Connection,OFFICE_PRIVATE_41_Z59_COOLC-HEATCNODE,COIL:COOLING:DX:SINGLESPEED,OFFICE_PRIVATE_41_Z59_COOLINGCOILDX,Outlet,1
 Non-Parent Node Connection,BREAK_ROOM_42_Z60_SUPPLYINLET,COIL:COOLING:DX:SINGLESPEED,BREAK_ROOM_42_Z60_COOLINGCOILDX,Inlet,1
 Non-Parent Node Connection,BREAK_ROOM_42_Z60_COOLC-HEATCNODE,COIL:COOLING:DX:SINGLESPEED,BREAK_ROOM_42_Z60_COOLINGCOILDX,Outlet,1
 Non-Parent Node Connection,STORAGE_42_Z61_SUPPLYINLET,COIL:COOLING:DX:SINGLESPEED,STORAGE_42_Z61_COOLINGCOILDX,Inlet,1
 Non-Parent Node Connection,STORAGE_42_Z61_COOLC-HEATCNODE,COIL:COOLING:DX:SINGLESPEED,STORAGE_42_Z61_COOLINGCOILDX,Outlet,1
 Non-Parent Node Connection,LOBBY_43_Z62_SUPPLYINLET,COIL:COOLING:DX:SINGLESPEED,LOBBY_43_Z62_COOLINGCOILDX,Inlet,1
 Non-Parent Node Connection,LOBBY_43_Z62_COOLC-HEATCNODE,COIL:COOLING:DX:SINGLESPEED,LOBBY_43_Z62_COOLINGCOILDX,Outlet,1
 Non-Parent Node Connection,STORAGE_43_Z63_SUPPLYINLET,COIL:COOLING:DX:SINGLESPEED,STORAGE_43_Z63_COOLINGCOILDX,Inlet,1
 Non-Parent Node Connection,STORAGE_43_Z63_COOLC-HEATCNODE,COIL:COOLING:DX:SINGLESPEED,STORAGE_43_Z63_COOLINGCOILDX,Outlet,1
 Non-Parent Node Connection,BREAK_ROOM_44_Z64_SUPPLYINLET,COIL:COOLING:DX:SINGLESPEED,BREAK_ROOM_44_Z64_COOLINGCOILDX,Inlet,1
 Non-Parent Node Connection,BREAK_ROOM_44_Z64_COOLC-HEATCNODE,COIL:COOLING:DX:SINGLESPEED,BREAK_ROOM_44_Z64_COOLINGCOILDX,Outlet,1
 Non-Parent Node Connection,OFFICE_PRIVATE_44_Z65_SUPPLYINLET,COIL:COOLING:DX:SINGLESPEED,OFFICE_PRIVATE_44_Z65_COOLINGCOILDX,Inlet,1
 Non-Parent Node Connection,OFFICE_PRIVATE_44_Z65_COOLC-HEATCNODE,COIL:COOLING:DX:SINGLESPEED,OFFICE_PRIVATE_44_Z65_COOLINGCOILDX,Outlet,1
 Non-Parent Node Connection,CONFERENCE_45_Z66_SUPPLYINLET,COIL:COOLING:DX:SINGLESPEED,CONFERENCE_45_Z66_COOLINGCOILDX,Inlet,1
 Non-Parent Node Connection,CONFERENCE_45_Z66_COOLC-HEATCNODE,COIL:COOLING:DX:SINGLESPEED,CONFERENCE_45_Z66_COOLINGCOILDX,Outlet,1
 Non-Parent Node Connection,OFFICE_PRIVATE_45_Z67_SUPPLYINLET,COIL:COOLING:DX:SINGLESPEED,OFFICE_PRIVATE_45_Z67_COOLINGCOILDX,Inlet,1
 Non-Parent Node Connection,OFFICE_PRIVATE_45_Z67_COOLC-HEATCNODE,COIL:COOLING:DX:SINGLESPEED,OFFICE_PRIVATE_45_Z67_COOLINGCOILDX,Outlet,1
 Non-Parent Node Connection,BREAK_ROOM_46_Z68_SUPPLYINLET,COIL:COOLING:DX:SINGLESPEED,BREAK_ROOM_46_Z68_COOLINGCOILDX,Inlet,1
 Non-Parent Node Connection,BREAK_ROOM_46_Z68_COOLC-HEATCNODE,COIL:COOLING:DX:SINGLESPEED,BREAK_ROOM_46_Z68_COOLINGCOILDX,Outlet,1
 Non-Parent Node Connection,OFFICE_PRIVATE_47_Z69_SUPPLYINLET,COIL:COOLING:DX:SINGLESPEED,OFFICE_PRIVATE_47_Z69_COOLINGCOILDX,Inlet,1
 Non-Parent Node Connection,OFFICE_PRIVATE_47_Z69_COOLC-HEATCNODE,COIL:COOLING:DX:SINGLESPEED,OFFICE_PRIVATE_47_Z69_COOLINGCOILDX,Outlet,1
 Non-Parent Node Connection,BREAK_ROOM_48_Z70_SUPPLYINLET,COIL:COOLING:DX:SINGLESPEED,BREAK_ROOM_48_Z70_COOLINGCOILDX,Inlet,1
 Non-Parent Node Connection,BREAK_ROOM_48_Z70_COOLC-HEATCNODE,COIL:COOLING:DX:SINGLESPEED,BREAK_ROOM_48_Z70_COOLINGCOILDX,Outlet,1
 Non-Parent Node Connection,STORAGE_48_Z71_SUPPLYINLET,COIL:COOLING:DX:SINGLESPEED,STORAGE_48_Z71_COOLINGCOILDX,Inlet,1
 Non-Parent Node Connection,STORAGE_48_Z71_COOLC-HEATCNODE,COIL:COOLING:DX:SINGLESPEED,STORAGE_48_Z71_COOLINGCOILDX,Outlet,1
 Non-Parent Node Connection,LOBBY_51_Z72_SUPPLYINLET,COIL:COOLING:DX:SINGLESPEED,LOBBY_51_Z72_COOLINGCOILDX,Inlet,1
 Non-Parent Node Connection,LOBBY_51_Z72_COOLC-HEATCNODE,COIL:COOLING:DX:SINGLESPEED,LOBBY_51_Z72_COOLINGCOILDX,Outlet,1
 Non-Parent Node Connection,CONFERENCE_51_Z73_SUPPLYINLET,COIL:COOLING:DX:SINGLESPEED,CONFERENCE_51_Z73_COOLINGCOILDX,Inlet,1
 Non-Parent Node Connection,CONFERENCE_51_Z73_COOLC-HEATCNODE,COIL:COOLING:DX:SINGLESPEED,CONFERENCE_51_Z73_COOLINGCOILDX,Outlet,1
 Non-Parent Node Connection,MECHANICAL_51_Z74_SUPPLYINLET,COIL:COOLING:DX:SINGLESPEED,MECHANICAL_51_Z74_COOLINGCOILDX,Inlet,1
 Non-Parent Node Connection,MECHANICAL_51_Z74_COOLC-HEATCNODE,COIL:COOLING:DX:SINGLESPEED,MECHANICAL_51_Z74_COOLINGCOILDX,Outlet,1
 Non-Parent Node Connection,OFFICE_PRIVATE_51_Z75_SUPPLYINLET,COIL:COOLING:DX:SINGLESPEED,OFFICE_PRIVATE_51_Z75_COOLINGCOILDX,Inlet,1
 Non-Parent Node Connection,OFFICE_PRIVATE_51_Z75_COOLC-HEATCNODE,COIL:COOLING:DX:SINGLESPEED,OFFICE_PRIVATE_51_Z75_COOLINGCOILDX,Outlet,1
 Non-Parent Node Connection,MECHANICAL_52_Z76_SUPPLYINLET,COIL:COOLING:DX:SINGLESPEED,MECHANICAL_52_Z76_COOLINGCOILDX,Inlet,1
 Non-Parent Node Connection,MECHANICAL_52_Z76_COOLC-HEATCNODE,COIL:COOLING:DX:SINGLESPEED,MECHANICAL_52_Z76_COOLINGCOILDX,Outlet,1
 Non-Parent Node Connection,OFFICE_PRIVATE_52_Z77_SUPPLYINLET,COIL:COOLING:DX:SINGLESPEED,OFFICE_PRIVATE_52_Z77_COOLINGCOILDX,Inlet,1
 Non-Parent Node Connection,OFFICE_PRIVATE_52_Z77_COOLC-HEATCNODE,COIL:COOLING:DX:SINGLESPEED,OFFICE_PRIVATE_52_Z77_COOLINGCOILDX,Outlet,1
 Non-Parent Node Connection,LOBBY_54_Z78_SUPPLYINLET,COIL:COOLING:DX:SINGLESPEED,LOBBY_54_Z78_COOLINGCOILDX,Inlet,1
 Non-Parent Node Connection,LOBBY_54_Z78_COOLC-HEATCNODE,COIL:COOLING:DX:SINGLESPEED,LOBBY_54_Z78_COOLINGCOILDX,Outlet,1
 Non-Parent Node Connection,BREAK_ROOM_54_Z79_SUPPLYINLET,COIL:COOLING:DX:SINGLESPEED,BREAK_ROOM_54_Z79_COOLINGCOILDX,Inlet,1
 Non-Parent Node Connection,BREAK_ROOM_54_Z79_COOLC-HEATCNODE,COIL:COOLING:DX:SINGLESPEED,BREAK_ROOM_54_Z79_COOLINGCOILDX,Outlet,1
 Non-Parent Node Connection,OFFICE_OPEN_54_Z80_SUPPLYINLET,COIL:COOLING:DX:SINGLESPEED,OFFICE_OPEN_54_Z80_COOLINGCOILDX,Inlet,1
 Non-Parent Node Connection,OFFICE_OPEN_54_Z80_COOLC-HEATCNODE,COIL:COOLING:DX:SINGLESPEED,OFFICE_OPEN_54_Z80_COOLINGCOILDX,Outlet,1
