Program Version,EnergyPlus, Version 24.2.0-94a887817b, YMD=2025.11.02 19:21,
   ** Warning ** Site:GroundTemperature:BuildingSurface: Some values fall outside the range of 15-25C.
   **   ~~~   ** These values may be inappropriate.  Please consult the Input Output Reference for more details.
   ** Warning ** Weather file location will be used rather than entered (IDF) Location object.
   **   ~~~   ** ..Location object=SITE
   **   ~~~   ** ..Weather File Location=Chicago Ohare Intl Ap IL USA TMY3 WMO#=725300
   **   ~~~   ** ..due to location differences, Latitude difference=[4.18] degrees, Longitude difference=[34.48] degrees.
   **   ~~~   ** ..Time Zone difference=[2.0] hour(s), Elevation difference=[1910.00] percent, [191.00] meters.
   ** Warning ** ProcessScheduleInput: Schedule:Compact="BREAK_ROOM_LIGHTING" has missing day types in Through=12/31
   **   ~~~   ** Last "For" field=FOR: WEEKENDS
   **   ~~~   ** Missing day types="Holiday","SummerDesignDay","WinterDesignDay","CustomDay1","CustomDay2"
   **   ~~~   ** Missing day types will have 0.0 as Schedule Values
   ** Warning ** ProcessScheduleInput: Schedule:Compact="BREAK_ROOM_EQUIPMENT" has missing day types in Through=12/31
   **   ~~~   ** Last "For" field=FOR: WEEKENDS
   **   ~~~   ** Missing day types="Holiday","SummerDesignDay","WinterDesignDay","CustomDay1","CustomDay2"
   **   ~~~   ** Missing day types will have 0.0 as Schedule Values
   ** Warning ** ProcessScheduleInput: Schedule:Compact="CONFERENCE_OCCUPANCY" has missing day types in Through=12/31
   **   ~~~   ** Last "For" field=FOR: WEEKENDS
   **   ~~~   ** Missing day types="Holiday","SummerDesignDay","WinterDesignDay","CustomDay1","CustomDay2"
   **   ~~~   ** Missing day types will have 0.0 as Schedule Values
   ** Warning ** ProcessScheduleInput: Schedule:Compact="CONFERENCE_LIGHTING" has missing day types in Through=12/31
   **   ~~~   ** Last "For" field=FOR: WEEKENDS
   **   ~~~   ** Missing day types="Holiday","SummerDesignDay","WinterDesignDay","CustomDay1","CustomDay2"
   **   ~~~   ** Missing day types will have 0.0 as Schedule Values
   ** Warning ** ProcessScheduleInput: Schedule:Compact="CONFERENCE_EQUIPMENT" has missing day types in Through=12/31
   **   ~~~   ** Last "For" field=FOR: WEEKENDS
   **   ~~~   ** Missing day types="Holiday","SummerDesignDay","WinterDesignDay","CustomDay1","CustomDay2"
   **   ~~~   ** Missing day types will have 0.0 as Schedule Values
   ** Warning ** ProcessScheduleInput: Schedule:Compact="LOBBY_LIGHTING" has missing day types in Through=12/31
   **   ~~~   ** Last "For" field=FOR: WEEKENDS
   **   ~~~   ** Missing day types="Holiday","SummerDesignDay","WinterDesignDay","CustomDay1","CustomDay2"
   **   ~~~   ** Missing day types will have 0.0 as Schedule Values
   ** Warning ** ProcessScheduleInput: Schedule:Compact="LOBBY_EQUIPMENT" has missing day types in Through=12/31
   **   ~~~   ** Last "For" field=FOR: WEEKENDS
   **   ~~~   ** Missing day types="Holiday","SummerDesignDay","WinterDesignDay","CustomDay1","CustomDay2"
   **   ~~~   ** Missing day types will have 0.0 as Schedule Values
   ** Warning ** ProcessScheduleInput: Schedule:Compact="MECHANICAL_LIGHTING" has missing day types in Through=12/31
   **   ~~~   ** Last "For" field=FOR: WEEKENDS
   **   ~~~   ** Missing day types="Holiday","SummerDesignDay","WinterDesignDay","CustomDay1","CustomDay2"
   **   ~~~   ** Missing day types will have 0.0 as Schedule Values
   ** Warning ** ProcessScheduleInput: Schedule:Compact="MECHANICAL_EQUIPMENT" has missing day types in Through=12/31
   **   ~~~   ** Last "For" field=FOR: WEEKENDS
   **   ~~~   ** Missing day types="Holiday","SummerDesignDay","WinterDesignDay","CustomDay1","CustomDay2"
   **   ~~~   ** Missing day types will have 0.0 as Schedule Values
   ** Warning ** ProcessScheduleInput: Schedule:Compact="OFFICE_OPEN_OCCUPANCY" has missing day types in Through=12/31
   **   ~~~   ** Last "For" field=FOR: WEEKENDS
   **   ~~~   ** Missing day types="Holiday","SummerDesignDay","WinterDesignDay","CustomDay1","CustomDay2"
   **   ~~~   ** Missing day types will have 0.0 as Schedule Values
   ** Warning ** ProcessScheduleInput: Schedule:Compact="OFFICE_OPEN_LIGHTING" has missing day types in Through=12/31
   **   ~~~   ** Last "For" field=FOR: WEEKENDS
   **   ~~~   ** Missing day types="Holiday","SummerDesignDay","WinterDesignDay","CustomDay1","CustomDay2"
   **   ~~~   ** Missing day types will have 0.0 as Schedule Values
   ** Warning ** ProcessScheduleInput: Schedule:Compact="OFFICE_OPEN_EQUIPMENT" has missing day types in Through=12/31
   **   ~~~   ** Last "For" field=FOR: WEEKENDS
   **   ~~~   ** Missing day types="Holiday","SummerDesignDay","WinterDesignDay","CustomDay1","CustomDay2"
   **   ~~~   ** Missing day types will have 0.0 as Schedule Values
   ** Warning ** ProcessScheduleInput: Schedule:Compact="STORAGE_LIGHTING" has missing day types in Through=12/31
   **   ~~~   ** Last "For" field=FOR: WEEKENDS
   **   ~~~   ** Missing day types="Holiday","SummerDesignDay","WinterDesignDay","CustomDay1","CustomDay2"
   **   ~~~   ** Missing day types will have 0.0 as Schedule Values
   ** Warning ** ProcessScheduleInput: Schedule:Compact="STORAGE_EQUIPMENT" has missing day types in Through=12/31
   **   ~~~   ** Last "For" field=FOR: WEEKENDS
   **   ~~~   ** Missing day types="Holiday","SummerDesignDay","WinterDesignDay","CustomDay1","CustomDay2"
   **   ~~~   ** Missing day types will have 0.0 as Schedule Values
   ** Warning ** No Glare Calculation Daylighting Reference Point Name provided for object named: BREAK_ROOM_0_DAYLIGHT
   **   ~~~   ** No glare calculation performed, and the simulation continues.
   ** Warning ** GetDaylightingControls: Fraction of zone or space controlled by the Daylighting reference points is < 1.0.
   **   ~~~   ** ..discovered in Daylighting:Controls="BREAK_ROOM_0_DAYLIGHT", only 0.900 of the zone or space is controlled.
   ** Warning ** No Glare Calculation Daylighting Reference Point Name provided for object named: BREAK_ROOM_1_DAYLIGHT
   **   ~~~   ** No glare calculation performed, and the simulation continues.
   ** Warning ** GetDaylightingControls: Fraction of zone or space controlled by the Daylighting reference points is < 1.0.
   **   ~~~   ** ..discovered in Daylighting:Controls="BREAK_ROOM_1_DAYLIGHT", only 0.900 of the zone or space is controlled.
   ** Warning ** No Glare Calculation Daylighting Reference Point Name provided for object named: LOBBY_2_DAYLIGHT
   **   ~~~   ** No glare calculation performed, and the simulation continues.
   ** Warning ** GetDaylightingControls: Fraction of zone or space controlled by the Daylighting reference points is < 1.0.
   **   ~~~   ** ..discovered in Daylighting:Controls="LOBBY_2_DAYLIGHT", only 0.900 of the zone or space is controlled.
   ** Warning ** No Glare Calculation Daylighting Reference Point Name provided for object named: OFFICE_PRIVATE_3_DAYLIGHT
   **   ~~~   ** No glare calculation performed, and the simulation continues.
   ** Warning ** GetDaylightingControls: Fraction of zone or space controlled by the Daylighting reference points is < 1.0.
   **   ~~~   ** ..discovered in Daylighting:Controls="OFFICE_PRIVATE_3_DAYLIGHT", only 0.900 of the zone or space is controlled.
   ** Warning ** No Glare Calculation Daylighting Reference Point Name provided for object named: CONFERENCE_4_DAYLIGHT
   **   ~~~   ** No glare calculation performed, and the simulation continues.
   ** Warning ** GetDaylightingControls: Fraction of zone or space controlled by the Daylighting reference points is < 1.0.
   **   ~~~   ** ..discovered in Daylighting:Controls="CONFERENCE_4_DAYLIGHT", only 0.900 of the zone or space is controlled.
   ** Warning ** No Glare Calculation Daylighting Reference Point Name provided for object named: BREAK_ROOM_4_DAYLIGHT
   **   ~~~   ** No glare calculation performed, and the simulation continues.
   ** Warning ** GetDaylightingControls: Fraction of zone or space controlled by the Daylighting reference points is < 1.0.
   **   ~~~   ** ..discovered in Daylighting:Controls="BREAK_ROOM_4_DAYLIGHT", only 0.900 of the zone or space is controlled.
   ** Warning ** No Glare Calculation Daylighting Reference Point Name provided for object named: OFFICE_PRIVATE_4_DAYLIGHT
   **   ~~~   ** No glare calculation performed, and the simulation continues.
   ** Warning ** GetDaylightingControls: Fraction of zone or space controlled by the Daylighting reference points is < 1.0.
   **   ~~~   ** ..discovered in Daylighting:Controls="OFFICE_PRIVATE_4_DAYLIGHT", only 0.900 of the zone or space is controlled.
   ** Warning ** GeometryTransformForDaylighting: Reference point X Value outside Zone Min/Max X, Zone=BREAK_ROOM_0
   **   ~~~   ** ...X Reference Point= 2.00, Zone Minimum X= 40.51, Zone Maximum X= 44.30
   **   ~~~   ** ...X Reference Distance Outside MinimumX= 38.5120 m.
   ** Warning ** GeometryTransformForDaylighting: Reference point X Value outside Zone Min/Max X, Zone=BREAK_ROOM_1
   **   ~~~   ** ...X Reference Point= 2.00, Zone Minimum X= 24.06, Zone Maximum X= 27.86
   **   ~~~   ** ...X Reference Distance Outside MinimumX= 22.0555 m.
   ** Warning ** GeometryTransformForDaylighting: Reference point Y Value outside Zone Min/Max Y, Zone=BREAK_ROOM_1
   **   ~~~   ** ...Y Reference Point= 2.00, Zone Minimum Y= -46.89, Zone Maximum Y= -40.40
   **   ~~~   ** ...Y Reference Distance Outside MinimumY= 42.4017 m.
   ** Warning ** GeometryTransformForDaylighting: Reference point Z Value outside Zone Min/Max Z, Zone=BREAK_ROOM_1
   **   ~~~   ** ...Z Reference Point= 0.80, Zone Minimum Z= 3.00, Zone Maximum Z= 6.00
   **   ~~~   ** ...Z Reference Distance Outside MinimumZ= 2.2000 m.
   ** Warning ** GeometryTransformForDaylighting: Reference point X Value outside Zone Min/Max X, Zone=LOBBY_2
   **   ~~~   ** ...X Reference Point= 2.00, Zone Minimum X= 42.68, Zone Maximum X= 48.93
   **   ~~~   ** ...X Reference Distance Outside MinimumX= 40.6798 m.
   ** Warning ** GeometryTransformForDaylighting: Reference point Y Value outside Zone Min/Max Y, Zone=LOBBY_2
   **   ~~~   ** ...Y Reference Point= 2.00, Zone Minimum Y= -31.37, Zone Maximum Y= -21.91
   **   ~~~   ** ...Y Reference Distance Outside MinimumY= 23.9085 m.
   ** Warning ** GeometryTransformForDaylighting: Reference point Z Value outside Zone Min/Max Z, Zone=LOBBY_2
   **   ~~~   ** ...Z Reference Point= 0.80, Zone Minimum Z= 6.00, Zone Maximum Z= 9.00
   **   ~~~   ** ...Z Reference Distance Outside MinimumZ= 5.2000 m.
   ** Warning ** GeometryTransformForDaylighting: Reference point X Value outside Zone Min/Max X, Zone=OFFICE_PRIVATE_3
   **   ~~~   ** ...X Reference Point= 2.00, Zone Minimum X= 7.46, Zone Maximum X= 12.76
   **   ~~~   ** ...X Reference Distance Outside MinimumX= 5.4580 m.
   ** Warning ** GeometryTransformForDaylighting: Reference point Y Value outside Zone Min/Max Y, Zone=OFFICE_PRIVATE_3
   **   ~~~   ** ...Y Reference Point= 2.00, Zone Minimum Y= -30.18, Zone Maximum Y= -24.58
   **   ~~~   ** ...Y Reference Distance Outside MinimumY= 26.5809 m.
   ** Warning ** GeometryTransformForDaylighting: Reference point Z Value outside Zone Min/Max Z, Zone=OFFICE_PRIVATE_3
   **   ~~~   ** ...Z Reference Point= 0.80, Zone Minimum Z= 9.00, Zone Maximum Z= 12.00
   **   ~~~   ** ...Z Reference Distance Outside MinimumZ= 8.2000 m.
   ** Warning ** GeometryTransformForDaylighting: Reference point X Value outside Zone Min/Max X, Zone=CONFERENCE_4
   **   ~~~   ** ...X Reference Point= 2.00, Zone Minimum X= 52.45, Zone Maximum X= 57.18
   **   ~~~   ** ...X Reference Distance Outside MinimumX= 50.4452 m.
   ** Warning ** GeometryTransformForDaylighting: Reference point Y Value outside Zone Min/Max Y, Zone=CONFERENCE_4
   **   ~~~   ** ...Y Reference Point= 2.00, Zone Minimum Y= -25.42, Zone Maximum Y= -17.82
   **   ~~~   ** ...Y Reference Distance Outside MinimumY= 19.8223 m.
   ** Warning ** GeometryTransformForDaylighting: Reference point Z Value outside Zone Min/Max Z, Zone=CONFERENCE_4
   **   ~~~   ** ...Z Reference Point= 0.80, Zone Minimum Z= 12.00, Zone Maximum Z= 15.00
   **   ~~~   ** ...Z Reference Distance Outside MinimumZ= 11.2000 m.
   ** Warning ** GeometryTransformForDaylighting: Reference point X Value outside Zone Min/Max X, Zone=BREAK_ROOM_4
   **   ~~~   ** ...X Reference Point= 2.00, Zone Minimum X= 31.99, Zone Maximum X= 35.76
   **   ~~~   ** ...X Reference Distance Outside MinimumX= 29.9947 m.
   ** Warning ** GeometryTransformForDaylighting: Reference point Y Value outside Zone Min/Max Y, Zone=BREAK_ROOM_4
   **   ~~~   ** ...Y Reference Point= 2.00, Zone Minimum Y= -43.46, Zone Maximum Y= -36.45
   **   ~~~   ** ...Y Reference Distance Outside MinimumY= 38.4454 m.
   ** Warning ** GeometryTransformForDaylighting: Reference point Z Value outside Zone Min/Max Z, Zone=BREAK_ROOM_4
   **   ~~~   ** ...Z Reference Point= 0.80, Zone Minimum Z= 12.00, Zone Maximum Z= 15.00
   **   ~~~   ** ...Z Reference Distance Outside MinimumZ= 11.2000 m.
   ** Warning ** GeometryTransformForDaylighting: Reference point X Value outside Zone Min/Max X, Zone=OFFICE_PRIVATE_4
   **   ~~~   ** ...X Reference Point= 2.00, Zone Minimum X= 47.80, Zone Maximum X= 52.63
   **   ~~~   ** ...X Reference Distance Outside MinimumX= 45.7950 m.
   ** Warning ** GeometryTransformForDaylighting: Reference point Y Value outside Zone Min/Max Y, Zone=OFFICE_PRIVATE_4
   **   ~~~   ** ...Y Reference Point= 2.00, Zone Minimum Y= -18.09, Zone Maximum Y= -9.66
   **   ~~~   ** ...Y Reference Distance Outside MinimumY= 11.6579 m.
   ** Warning ** GeometryTransformForDaylighting: Reference point Z Value outside Zone Min/Max Z, Zone=OFFICE_PRIVATE_4
   **   ~~~   ** ...Z Reference Point= 0.80, Zone Minimum Z= 12.00, Zone Maximum Z= 15.00
   **   ~~~   ** ...Z Reference Distance Outside MinimumZ= 11.2000 m.
   ** Warning ** Since Damper Heating Action = NORMAL, input for Maximum Flow per Zone Floor Area During Reheat will be ignored.
   **   ~~~   ** Occurs in AirTerminal:SingleDuct:VAV:Reheat = BREAK_ROOM_0_Z1_VAVTERMINAL
   ** Warning ** Since Damper Heating Action = NORMAL, input for Maximum Flow Fraction During Reheat will be ignored.
   **   ~~~   ** Occurs in AirTerminal:SingleDuct:VAV:Reheat = BREAK_ROOM_0_Z1_VAVTERMINAL
   ** Warning ** Since Damper Heating Action = NORMAL, input for Maximum Flow per Zone Floor Area During Reheat will be ignored.
   **   ~~~   ** Occurs in AirTerminal:SingleDuct:VAV:Reheat = MECHANICAL_0_Z2_VAVTERMINAL
   ** Warning ** Since Damper Heating Action = NORMAL, input for Maximum Flow Fraction During Reheat will be ignored.
   **   ~~~   ** Occurs in AirTerminal:SingleDuct:VAV:Reheat = MECHANICAL_0_Z2_VAVTERMINAL
   ** Warning ** Since Damper Heating Action = NORMAL, input for Maximum Flow per Zone Floor Area During Reheat will be ignored.
   **   ~~~   ** Occurs in AirTerminal:SingleDuct:VAV:Reheat = STORAGE_0_Z3_VAVTERMINAL
   ** Warning ** Since Damper Heating Action = NORMAL, input for Maximum Flow Fraction During Reheat will be ignored.
   **   ~~~   ** Occurs in AirTerminal:SingleDuct:VAV:Reheat = STORAGE_0_Z3_VAVTERMINAL
   ** Warning ** Since Damper Heating Action = NORMAL, input for Maximum Flow per Zone Floor Area During Reheat will be ignored.
   **   ~~~   ** Occurs in AirTerminal:SingleDuct:VAV:Reheat = BREAK_ROOM_1_Z4_VAVTERMINAL
   ** Warning ** Since Damper Heating Action = NORMAL, input for Maximum Flow Fraction During Reheat will be ignored.
   **   ~~~   ** Occurs in AirTerminal:SingleDuct:VAV:Reheat = BREAK_ROOM_1_Z4_VAVTERMINAL
   ** Warning ** Since Damper Heating Action = NORMAL, input for Maximum Flow per Zone Floor Area During Reheat will be ignored.
   **   ~~~   ** Occurs in AirTerminal:SingleDuct:VAV:Reheat = STORAGE_1_Z5_VAVTERMINAL
   ** Warning ** Since Damper Heating Action = NORMAL, input for Maximum Flow Fraction During Reheat will be ignored.
   **   ~~~   ** Occurs in AirTerminal:SingleDuct:VAV:Reheat = STORAGE_1_Z5_VAVTERMINAL
   ** Warning ** Since Damper Heating Action = NORMAL, input for Maximum Flow per Zone Floor Area During Reheat will be ignored.
   **   ~~~   ** Occurs in AirTerminal:SingleDuct:VAV:Reheat = LOBBY_2_Z6_VAVTERMINAL
   ** Warning ** Since Damper Heating Action = NORMAL, input for Maximum Flow Fraction During Reheat will be ignored.
   **   ~~~   ** Occurs in AirTerminal:SingleDuct:VAV:Reheat = LOBBY_2_Z6_VAVTERMINAL
   ** Warning ** Since Damper Heating Action = NORMAL, input for Maximum Flow per Zone Floor Area During Reheat will be ignored.
   **   ~~~   ** Occurs in AirTerminal:SingleDuct:VAV:Reheat = STORAGE_2_Z7_VAVTERMINAL
   ** Warning ** Since Damper Heating Action = NORMAL, input for Maximum Flow Fraction During Reheat will be ignored.
   **   ~~~   ** Occurs in AirTerminal:SingleDuct:VAV:Reheat = STORAGE_2_Z7_VAVTERMINAL
   ** Warning ** Since Damper Heating Action = NORMAL, input for Maximum Flow per Zone Floor Area During Reheat will be ignored.
   **   ~~~   ** Occurs in AirTerminal:SingleDuct:VAV:Reheat = OFFICE_PRIVATE_3_Z8_VAVTERMINAL
   ** Warning ** Since Damper Heating Action = NORMAL, input for Maximum Flow Fraction During Reheat will be ignored.
   **   ~~~   ** Occurs in AirTerminal:SingleDuct:VAV:Reheat = OFFICE_PRIVATE_3_Z8_VAVTERMINAL
   ** Warning ** Since Damper Heating Action = NORMAL, input for Maximum Flow per Zone Floor Area During Reheat will be ignored.
   **   ~~~   ** Occurs in AirTerminal:SingleDuct:VAV:Reheat = CONFERENCE_4_Z9_VAVTERMINAL
   ** Warning ** Since Damper Heating Action = NORMAL, input for Maximum Flow Fraction During Reheat will be ignored.
   **   ~~~   ** Occurs in AirTerminal:SingleDuct:VAV:Reheat = CONFERENCE_4_Z9_VAVTERMINAL
   ** Warning ** Since Damper Heating Action = NORMAL, input for Maximum Flow per Zone Floor Area During Reheat will be ignored.
   **   ~~~   ** Occurs in AirTerminal:SingleDuct:VAV:Reheat = BREAK_ROOM_4_Z10_VAVTERMINAL
   ** Warning ** Since Damper Heating Action = NORMAL, input for Maximum Flow Fraction During Reheat will be ignored.
   **   ~~~   ** Occurs in AirTerminal:SingleDuct:VAV:Reheat = BREAK_ROOM_4_Z10_VAVTERMINAL
   ** Warning ** Since Damper Heating Action = NORMAL, input for Maximum Flow per Zone Floor Area During Reheat will be ignored.
   **   ~~~   ** Occurs in AirTerminal:SingleDuct:VAV:Reheat = OFFICE_PRIVATE_4_Z11_VAVTERMINAL
   ** Warning ** Since Damper Heating Action = NORMAL, input for Maximum Flow Fraction During Reheat will be ignored.
   **   ~~~   ** Occurs in AirTerminal:SingleDuct:VAV:Reheat = OFFICE_PRIVATE_4_Z11_VAVTERMINAL
   ** Warning ** Since Damper Heating Action = NORMAL, input for Maximum Flow per Zone Floor Area During Reheat will be ignored.
   **   ~~~   ** Occurs in AirTerminal:SingleDuct:VAV:Reheat = STORAGE_4_Z12_VAVTERMINAL
   ** Warning ** Since Damper Heating Action = NORMAL, input for Maximum Flow Fraction During Reheat will be ignored.
   **   ~~~   ** Occurs in AirTerminal:SingleDuct:VAV:Reheat = STORAGE_4_Z12_VAVTERMINAL
   ** Warning ** GetDXCoils: Coil:Cooling:DX:SingleSpeed="BREAK_ROOM_0_Z1_COOLINGCOILDX" curve values
   **   ~~~   ** ... Energy Input Ratio Function of Temperature Curve Name = COOL-EIR-FT output is not equal to 1.0 (+ or - 10%) at rated conditions.
   **   ~~~   ** ... Curve output at rated conditions = -3.341E-002
   ** Warning ** GetDXCoils: Coil:Cooling:DX:SingleSpeed="MECHANICAL_0_Z2_COOLINGCOILDX" curve values
   **   ~~~   ** ... Energy Input Ratio Function of Temperature Curve Name = COOL-EIR-FT output is not equal to 1.0 (+ or - 10%) at rated conditions.
   **   ~~~   ** ... Curve output at rated conditions = -3.341E-002
   ** Warning ** GetDXCoils: Coil:Cooling:DX:SingleSpeed="STORAGE_0_Z3_COOLINGCOILDX" curve values
   **   ~~~   ** ... Energy Input Ratio Function of Temperature Curve Name = COOL-EIR-FT output is not equal to 1.0 (+ or - 10%) at rated conditions.
   **   ~~~   ** ... Curve output at rated conditions = -3.341E-002
   ** Warning ** GetDXCoils: Coil:Cooling:DX:SingleSpeed="BREAK_ROOM_1_Z4_COOLINGCOILDX" curve values
   **   ~~~   ** ... Energy Input Ratio Function of Temperature Curve Name = COOL-EIR-FT output is not equal to 1.0 (+ or - 10%) at rated conditions.
   **   ~~~   ** ... Curve output at rated conditions = -3.341E-002
   ** Warning ** GetDXCoils: Coil:Cooling:DX:SingleSpeed="STORAGE_1_Z5_COOLINGCOILDX" curve values
   **   ~~~   ** ... Energy Input Ratio Function of Temperature Curve Name = COOL-EIR-FT output is not equal to 1.0 (+ or - 10%) at rated conditions.
   **   ~~~   ** ... Curve output at rated conditions = -3.341E-002
   ** Warning ** GetDXCoils: Coil:Cooling:DX:SingleSpeed="LOBBY_2_Z6_COOLINGCOILDX" curve values
   **   ~~~   ** ... Energy Input Ratio Function of Temperature Curve Name = COOL-EIR-FT output is not equal to 1.0 (+ or - 10%) at rated conditions.
   **   ~~~   ** ... Curve output at rated conditions = -3.341E-002
   ** Warning ** GetDXCoils: Coil:Cooling:DX:SingleSpeed="STORAGE_2_Z7_COOLINGCOILDX" curve values
   **   ~~~   ** ... Energy Input Ratio Function of Temperature Curve Name = COOL-EIR-FT output is not equal to 1.0 (+ or - 10%) at rated conditions.
   **   ~~~   ** ... Curve output at rated conditions = -3.341E-002
   ** Warning ** GetDXCoils: Coil:Cooling:DX:SingleSpeed="OFFICE_PRIVATE_3_Z8_COOLINGCOILDX" curve values
   **   ~~~   ** ... Energy Input Ratio Function of Temperature Curve Name = COOL-EIR-FT output is not equal to 1.0 (+ or - 10%) at rated conditions.
   **   ~~~   ** ... Curve output at rated conditions = -3.341E-002
   ** Warning ** GetDXCoils: Coil:Cooling:DX:SingleSpeed="CONFERENCE_4_Z9_COOLINGCOILDX" curve values
   **   ~~~   ** ... Energy Input Ratio Function of Temperature Curve Name = COOL-EIR-FT output is not equal to 1.0 (+ or - 10%) at rated conditions.
   **   ~~~   ** ... Curve output at rated conditions = -3.341E-002
   ** Warning ** GetDXCoils: Coil:Cooling:DX:SingleSpeed="BREAK_ROOM_4_Z10_COOLINGCOILDX" curve values
   **   ~~~   ** ... Energy Input Ratio Function of Temperature Curve Name = COOL-EIR-FT output is not equal to 1.0 (+ or - 10%) at rated conditions.
   **   ~~~   ** ... Curve output at rated conditions = -3.341E-002
   ** Warning ** GetDXCoils: Coil:Cooling:DX:SingleSpeed="OFFICE_PRIVATE_4_Z11_COOLINGCOILDX" curve values
   **   ~~~   ** ... Energy Input Ratio Function of Temperature Curve Name = COOL-EIR-FT output is not equal to 1.0 (+ or - 10%) at rated conditions.
   **   ~~~   ** ... Curve output at rated conditions = -3.341E-002
   ** Warning ** GetDXCoils: Coil:Cooling:DX:SingleSpeed="STORAGE_4_Z12_COOLINGCOILDX" curve values
   **   ~~~   ** ... Energy Input Ratio Function of Temperature Curve Name = COOL-EIR-FT output is not equal to 1.0 (+ or - 10%) at rated conditions.
   **   ~~~   ** ... Curve output at rated conditions = -3.341E-002
   ** Warning ** CalcDoe2DXCoil: Coil:Cooling:DX:SingleSpeed="BREAK_ROOM_0_Z1_COOLINGCOILDX":
   **   ~~~   **  Energy Input Ratio Modifier curve (function of temperature) output is negative (-3.334E-002).
   **   ~~~   **  Negative value occurs using a condenser inlet air temperature of 35.0 and an inlet air wet-bulb temperature of 19.4.
   **   ~~~   **  Resetting curve output to zero and continuing simulation.
   **   ~~~   **  During Warmup, Environment=YEAR ROUND RUN PERIOD, at Simulation time=01/01 00:00 - 00:15
   ** Warning ** CalcDoe2DXCoil: Coil:Cooling:DX:SingleSpeed="MECHANICAL_0_Z2_COOLINGCOILDX":
   **   ~~~   **  Energy Input Ratio Modifier curve (function of temperature) output is negative (-3.334E-002).
   **   ~~~   **  Negative value occurs using a condenser inlet air temperature of 35.0 and an inlet air wet-bulb temperature of 19.4.
   **   ~~~   **  Resetting curve output to zero and continuing simulation.
   **   ~~~   **  During Warmup, Environment=YEAR ROUND RUN PERIOD, at Simulation time=01/01 00:00 - 00:15
   ** Warning ** CalcDoe2DXCoil: Coil:Cooling:DX:SingleSpeed="STORAGE_0_Z3_COOLINGCOILDX":
   **   ~~~   **  Energy Input Ratio Modifier curve (function of temperature) output is negative (-3.334E-002).
   **   ~~~   **  Negative value occurs using a condenser inlet air temperature of 35.0 and an inlet air wet-bulb temperature of 19.4.
   **   ~~~   **  Resetting curve output to zero and continuing simulation.
   **   ~~~   **  During Warmup, Environment=YEAR ROUND RUN PERIOD, at Simulation time=01/01 00:00 - 00:15
   ** Warning ** CalcDoe2DXCoil: Coil:Cooling:DX:SingleSpeed="BREAK_ROOM_1_Z4_COOLINGCOILDX":
   **   ~~~   **  Energy Input Ratio Modifier curve (function of temperature) output is negative (-3.334E-002).
   **   ~~~   **  Negative value occurs using a condenser inlet air temperature of 35.0 and an inlet air wet-bulb temperature of 19.4.
   **   ~~~   **  Resetting curve output to zero and continuing simulation.
   **   ~~~   **  During Warmup, Environment=YEAR ROUND RUN PERIOD, at Simulation time=01/01 00:00 - 00:15
   ** Warning ** CalcDoe2DXCoil: Coil:Cooling:DX:SingleSpeed="STORAGE_1_Z5_COOLINGCOILDX":
   **   ~~~   **  Energy Input Ratio Modifier curve (function of temperature) output is negative (-3.334E-002).
   **   ~~~   **  Negative value occurs using a condenser inlet air temperature of 35.0 and an inlet air wet-bulb temperature of 19.4.
   **   ~~~   **  Resetting curve output to zero and continuing simulation.
   **   ~~~   **  During Warmup, Environment=YEAR ROUND RUN PERIOD, at Simulation time=01/01 00:00 - 00:15
   ** Warning ** CalcDoe2DXCoil: Coil:Cooling:DX:SingleSpeed="LOBBY_2_Z6_COOLINGCOILDX":
   **   ~~~   **  Energy Input Ratio Modifier curve (function of temperature) output is negative (-3.334E-002).
   **   ~~~   **  Negative value occurs using a condenser inlet air temperature of 35.0 and an inlet air wet-bulb temperature of 19.4.
   **   ~~~   **  Resetting curve output to zero and continuing simulation.
   **   ~~~   **  During Warmup, Environment=YEAR ROUND RUN PERIOD, at Simulation time=01/01 00:00 - 00:15
   ** Warning ** CalcDoe2DXCoil: Coil:Cooling:DX:SingleSpeed="STORAGE_2_Z7_COOLINGCOILDX":
   **   ~~~   **  Energy Input Ratio Modifier curve (function of temperature) output is negative (-3.334E-002).
   **   ~~~   **  Negative value occurs using a condenser inlet air temperature of 35.0 and an inlet air wet-bulb temperature of 19.4.
   **   ~~~   **  Resetting curve output to zero and continuing simulation.
   **   ~~~   **  During Warmup, Environment=YEAR ROUND RUN PERIOD, at Simulation time=01/01 00:00 - 00:15
   ** Warning ** CalcDoe2DXCoil: Coil:Cooling:DX:SingleSpeed="OFFICE_PRIVATE_3_Z8_COOLINGCOILDX":
   **   ~~~   **  Energy Input Ratio Modifier curve (function of temperature) output is negative (-3.334E-002).
   **   ~~~   **  Negative value occurs using a condenser inlet air temperature of 35.0 and an inlet air wet-bulb temperature of 19.4.
   **   ~~~   **  Resetting curve output to zero and continuing simulation.
   **   ~~~   **  During Warmup, Environment=YEAR ROUND RUN PERIOD, at Simulation time=01/01 00:00 - 00:15
   ** Warning ** CalcDoe2DXCoil: Coil:Cooling:DX:SingleSpeed="CONFERENCE_4_Z9_COOLINGCOILDX":
   **   ~~~   **  Energy Input Ratio Modifier curve (function of temperature) output is negative (-3.334E-002).
   **   ~~~   **  Negative value occurs using a condenser inlet air temperature of 35.0 and an inlet air wet-bulb temperature of 19.4.
   **   ~~~   **  Resetting curve output to zero and continuing simulation.
   **   ~~~   **  During Warmup, Environment=YEAR ROUND RUN PERIOD, at Simulation time=01/01 00:00 - 00:15
   ** Warning ** CalcDoe2DXCoil: Coil:Cooling:DX:SingleSpeed="BREAK_ROOM_4_Z10_COOLINGCOILDX":
   **   ~~~   **  Energy Input Ratio Modifier curve (function of temperature) output is negative (-3.334E-002).
   **   ~~~   **  Negative value occurs using a condenser inlet air temperature of 35.0 and an inlet air wet-bulb temperature of 19.4.
   **   ~~~   **  Resetting curve output to zero and continuing simulation.
   **   ~~~   **  During Warmup, Environment=YEAR ROUND RUN PERIOD, at Simulation time=01/01 00:00 - 00:15
   ** Warning ** CalcDoe2DXCoil: Coil:Cooling:DX:SingleSpeed="OFFICE_PRIVATE_4_Z11_COOLINGCOILDX":
   **   ~~~   **  Energy Input Ratio Modifier curve (function of temperature) output is negative (-3.334E-002).
   **   ~~~   **  Negative value occurs using a condenser inlet air temperature of 35.0 and an inlet air wet-bulb temperature of 19.4.
   **   ~~~   **  Resetting curve output to zero and continuing simulation.
   **   ~~~   **  During Warmup, Environment=YEAR ROUND RUN PERIOD, at Simulation time=01/01 00:00 - 00:15
   ** Warning ** CalcDoe2DXCoil: Coil:Cooling:DX:SingleSpeed="STORAGE_4_Z12_COOLINGCOILDX":
   **   ~~~   **  Energy Input Ratio Modifier curve (function of temperature) output is negative (-3.334E-002).
   **   ~~~   **  Negative value occurs using a condenser inlet air temperature of 35.0 and an inlet air wet-bulb temperature of 19.4.
   **   ~~~   **  Resetting curve output to zero and continuing simulation.
   **   ~~~   **  During Warmup, Environment=YEAR ROUND RUN PERIOD, at Simulation time=01/01 00:00 - 00:15
   ************* Testing Individual Branch Integrity
   ************* All Branches passed integrity testing
   ************* Testing Individual Supply Air Path Integrity
   ************* All Supply Air Paths passed integrity testing
   ************* Testing Individual Return Air Path Integrity
   ************* All Return Air Paths passed integrity testing
   ************* No node connection errors were found.
   ************* Beginning Simulation
   ** Warning ** CalcDoe2DXCoil: Coil:Cooling:DX:SingleSpeed="BREAK_ROOM_0_Z1_COOLINGCOILDX" - Air volume flow rate per watt of rated total cooling capacity is out of range at 1.038E-005 m3/s/W.
   **   ~~~   **  Environment=YEAR ROUND RUN PERIOD, at Simulation time=01/17 12:45 - 13:00
   **   ~~~   ** Expected range for VolumeFlowPerRatedTotalCapacity=[2.684E-005--6.713E-005]
   **   ~~~   ** Possible causes include inconsistent air flow rates in system components,
   **   ~~~   ** or variable air volume [VAV] system using incorrect coil type.
   ** Warning ** CalcDoe2DXCoil: Coil:Cooling:DX:SingleSpeed "BREAK_ROOM_0_Z1_COOLINGCOILDX" - Full load outlet air dry-bulb temperature < 2C. This indicates the possibility of coil frost/freeze. Outlet temperature = -43.66 C.
   **   ~~~   **  ...Occurrence info = YEAR ROUND RUN PERIOD, 01/17 12:45 - 13:00
   **   ~~~   ** ... Possible reasons for low outlet air dry-bulb temperatures are: This DX coil
   **   ~~~   **    1) may have a low inlet air dry-bulb temperature. Inlet air temperature = 24.170 C.
   **   ~~~   **    2) may have a low air flow rate per watt of cooling capacity. Check inputs.
   **   ~~~   **    3) is used as part of a HX assisted cooling coil which uses a high sensible effectiveness. Check inputs.
   ** Warning ** CalcDoe2DXCoil: Coil:Cooling:DX:SingleSpeed="BREAK_ROOM_1_Z4_COOLINGCOILDX" - Air volume flow rate per watt of rated total cooling capacity is out of range at 1.038E-005 m3/s/W.
   **   ~~~   **  Environment=YEAR ROUND RUN PERIOD, at Simulation time=01/17 13:00 - 13:15
   **   ~~~   ** Expected range for VolumeFlowPerRatedTotalCapacity=[2.684E-005--6.713E-005]
   **   ~~~   ** Possible causes include inconsistent air flow rates in system components,
   **   ~~~   ** or variable air volume [VAV] system using incorrect coil type.
   ** Warning ** CalcDoe2DXCoil: Coil:Cooling:DX:SingleSpeed "BREAK_ROOM_1_Z4_COOLINGCOILDX" - Full load outlet air dry-bulb temperature < 2C. This indicates the possibility of coil frost/freeze. Outlet temperature = -43.60 C.
   **   ~~~   **  ...Occurrence info = YEAR ROUND RUN PERIOD, 01/17 13:00 - 13:15
   **   ~~~   ** ... Possible reasons for low outlet air dry-bulb temperatures are: This DX coil
   **   ~~~   **    1) may have a low inlet air dry-bulb temperature. Inlet air temperature = 24.271 C.
   **   ~~~   **    2) may have a low air flow rate per watt of cooling capacity. Check inputs.
   **   ~~~   **    3) is used as part of a HX assisted cooling coil which uses a high sensible effectiveness. Check inputs.
   ** Warning ** CalcDoe2DXCoil: Coil:Cooling:DX:SingleSpeed="STORAGE_1_Z5_COOLINGCOILDX" - Air volume flow rate per watt of rated total cooling capacity is out of range at 1.032E-005 m3/s/W.
   **   ~~~   **  Environment=YEAR ROUND RUN PERIOD, at Simulation time=01/17 13:30 - 13:45
   **   ~~~   ** Expected range for VolumeFlowPerRatedTotalCapacity=[2.684E-005--6.713E-005]
   **   ~~~   ** Possible causes include inconsistent air flow rates in system components,
   **   ~~~   ** or variable air volume [VAV] system using incorrect coil type.
   ** Warning ** CalcDoe2DXCoil: Coil:Cooling:DX:SingleSpeed="BREAK_ROOM_4_Z10_COOLINGCOILDX" - Air volume flow rate per watt of rated total cooling capacity is out of range at 1.038E-005 m3/s/W.
   **   ~~~   **  Environment=YEAR ROUND RUN PERIOD, at Simulation time=01/17 13:30 - 13:45
   **   ~~~   ** Expected range for VolumeFlowPerRatedTotalCapacity=[2.684E-005--6.713E-005]
   **   ~~~   ** Possible causes include inconsistent air flow rates in system components,
   **   ~~~   ** or variable air volume [VAV] system using incorrect coil type.
   ** Warning ** CalcDoe2DXCoil: Coil:Cooling:DX:SingleSpeed "STORAGE_1_Z5_COOLINGCOILDX" - Full load outlet air dry-bulb temperature < 2C. This indicates the possibility of coil frost/freeze. Outlet temperature = -44.65 C.
   **   ~~~   **  ...Occurrence info = YEAR ROUND RUN PERIOD, 01/17 13:30 - 13:45
   **   ~~~   ** ... Possible reasons for low outlet air dry-bulb temperatures are: This DX coil
   **   ~~~   **    1) may have a low inlet air dry-bulb temperature. Inlet air temperature = 24.171 C.
   **   ~~~   **    2) may have a low air flow rate per watt of cooling capacity. Check inputs.
   **   ~~~   **    3) is used as part of a HX assisted cooling coil which uses a high sensible effectiveness. Check inputs.
   ** Warning ** CalcDoe2DXCoil: Coil:Cooling:DX:SingleSpeed "BREAK_ROOM_4_Z10_COOLINGCOILDX" - Full load outlet air dry-bulb temperature < 2C. This indicates the possibility of coil frost/freeze. Outlet temperature = -43.55 C.
   **   ~~~   **  ...Occurrence info = YEAR ROUND RUN PERIOD, 01/17 13:30 - 13:45
   **   ~~~   ** ... Possible reasons for low outlet air dry-bulb temperatures are: This DX coil
   **   ~~~   **    1) may have a low inlet air dry-bulb temperature. Inlet air temperature = 24.208 C.
   **   ~~~   **    2) may have a low air flow rate per watt of cooling capacity. Check inputs.
   **   ~~~   **    3) is used as part of a HX assisted cooling coil which uses a high sensible effectiveness. Check inputs.
   ** Warning ** CalcDoe2DXCoil: Coil:Cooling:DX:SingleSpeed="STORAGE_2_Z7_COOLINGCOILDX" - Air volume flow rate per watt of rated total cooling capacity is out of range at 1.030E-005 m3/s/W.
   **   ~~~   **  Environment=YEAR ROUND RUN PERIOD, at Simulation time=02/09 15:08 - 15:15
   **   ~~~   ** Expected range for VolumeFlowPerRatedTotalCapacity=[2.684E-005--6.713E-005]
   **   ~~~   ** Possible causes include inconsistent air flow rates in system components,
   **   ~~~   ** or variable air volume [VAV] system using incorrect coil type.
   ** Warning ** CalcDoe2DXCoil: Coil:Cooling:DX:SingleSpeed "STORAGE_2_Z7_COOLINGCOILDX" - Full load outlet air dry-bulb temperature < 2C. This indicates the possibility of coil frost/freeze. Outlet temperature = -44.97 C.
   **   ~~~   **  ...Occurrence info = YEAR ROUND RUN PERIOD, 02/09 15:08 - 15:15
   **   ~~~   ** ... Possible reasons for low outlet air dry-bulb temperatures are: This DX coil
   **   ~~~   **    1) may have a low inlet air dry-bulb temperature. Inlet air temperature = 24.278 C.
   **   ~~~   **    2) may have a low air flow rate per watt of cooling capacity. Check inputs.
   **   ~~~   **    3) is used as part of a HX assisted cooling coil which uses a high sensible effectiveness. Check inputs.
   ** Warning ** CalcDoe2DXCoil: Coil:Cooling:DX:SingleSpeed="OFFICE_PRIVATE_3_Z8_COOLINGCOILDX" - Air volume flow rate per watt of rated total cooling capacity is out of range at 1.043E-005 m3/s/W.
   **   ~~~   **  Environment=YEAR ROUND RUN PERIOD, at Simulation time=02/09 15:15 - 15:30
   **   ~~~   ** Expected range for VolumeFlowPerRatedTotalCapacity=[2.684E-005--6.713E-005]
   **   ~~~   ** Possible causes include inconsistent air flow rates in system components,
   **   ~~~   ** or variable air volume [VAV] system using incorrect coil type.
   ** Warning ** CalcDoe2DXCoil: Coil:Cooling:DX:SingleSpeed "OFFICE_PRIVATE_3_Z8_COOLINGCOILDX" - Full load outlet air dry-bulb temperature < 2C. This indicates the possibility of coil frost/freeze. Outlet temperature = -42.19 C.
   **   ~~~   **  ...Occurrence info = YEAR ROUND RUN PERIOD, 02/09 15:15 - 15:22
   **   ~~~   ** ... Possible reasons for low outlet air dry-bulb temperatures are: This DX coil
   **   ~~~   **    1) may have a low inlet air dry-bulb temperature. Inlet air temperature = 24.103 C.
   **   ~~~   **    2) may have a low air flow rate per watt of cooling capacity. Check inputs.
   **   ~~~   **    3) is used as part of a HX assisted cooling coil which uses a high sensible effectiveness. Check inputs.
   ** Warning ** CalcDoe2DXCoil: Coil:Cooling:DX:SingleSpeed="CONFERENCE_4_Z9_COOLINGCOILDX" - Air volume flow rate per watt of rated total cooling capacity is out of range at 1.043E-005 m3/s/W.
   **   ~~~   **  Environment=YEAR ROUND RUN PERIOD, at Simulation time=02/09 15:30 - 15:45
   **   ~~~   ** Expected range for VolumeFlowPerRatedTotalCapacity=[2.684E-005--6.713E-005]
   **   ~~~   ** Possible causes include inconsistent air flow rates in system components,
   **   ~~~   ** or variable air volume [VAV] system using incorrect coil type.
   ** Warning ** CalcDoe2DXCoil: Coil:Cooling:DX:SingleSpeed "CONFERENCE_4_Z9_COOLINGCOILDX" - Full load outlet air dry-bulb temperature < 2C. This indicates the possibility of coil frost/freeze. Outlet temperature = -41.44 C.
   **   ~~~   **  ...Occurrence info = YEAR ROUND RUN PERIOD, 02/09 15:38 - 15:45
   **   ~~~   ** ... Possible reasons for low outlet air dry-bulb temperatures are: This DX coil
   **   ~~~   **    1) may have a low inlet air dry-bulb temperature. Inlet air temperature = 24.221 C.
   **   ~~~   **    2) may have a low air flow rate per watt of cooling capacity. Check inputs.
   **   ~~~   **    3) is used as part of a HX assisted cooling coil which uses a high sensible effectiveness. Check inputs.
   ** Warning ** CalcDoe2DXCoil: Coil:Cooling:DX:SingleSpeed="OFFICE_PRIVATE_4_Z11_COOLINGCOILDX" - Air volume flow rate per watt of rated total cooling capacity is out of range at 1.039E-005 m3/s/W.
   **   ~~~   **  Environment=YEAR ROUND RUN PERIOD, at Simulation time=02/10 13:53 - 14:00
   **   ~~~   ** Expected range for VolumeFlowPerRatedTotalCapacity=[2.684E-005--6.713E-005]
   **   ~~~   ** Possible causes include inconsistent air flow rates in system components,
   **   ~~~   ** or variable air volume [VAV] system using incorrect coil type.
   ** Warning ** CalcDoe2DXCoil: Coil:Cooling:DX:SingleSpeed "OFFICE_PRIVATE_4_Z11_COOLINGCOILDX" - Full load outlet air dry-bulb temperature < 2C. This indicates the possibility of coil frost/freeze. Outlet temperature = -43.33 C.
   **   ~~~   **  ...Occurrence info = YEAR ROUND RUN PERIOD, 02/10 13:53 - 14:00
   **   ~~~   ** ... Possible reasons for low outlet air dry-bulb temperatures are: This DX coil
   **   ~~~   **    1) may have a low inlet air dry-bulb temperature. Inlet air temperature = 24.124 C.
   **   ~~~   **    2) may have a low air flow rate per watt of cooling capacity. Check inputs.
   **   ~~~   **    3) is used as part of a HX assisted cooling coil which uses a high sensible effectiveness. Check inputs.
   ** Warning ** CalcDoe2DXCoil: Coil:Cooling:DX:SingleSpeed="STORAGE_0_Z3_COOLINGCOILDX" - Air volume flow rate per watt of rated total cooling capacity is out of range at 1.031E-005 m3/s/W.
   **   ~~~   **  Environment=YEAR ROUND RUN PERIOD, at Simulation time=02/10 14:23 - 14:30
   **   ~~~   ** Expected range for VolumeFlowPerRatedTotalCapacity=[2.684E-005--6.713E-005]
   **   ~~~   ** Possible causes include inconsistent air flow rates in system components,
   **   ~~~   ** or variable air volume [VAV] system using incorrect coil type.
   ** Warning ** CalcDoe2DXCoil: Coil:Cooling:DX:SingleSpeed "STORAGE_0_Z3_COOLINGCOILDX" - Full load outlet air dry-bulb temperature < 2C. This indicates the possibility of coil frost/freeze. Outlet temperature = -44.83 C.
   **   ~~~   **  ...Occurrence info = YEAR ROUND RUN PERIOD, 02/10 14:23 - 14:30
   **   ~~~   ** ... Possible reasons for low outlet air dry-bulb temperatures are: This DX coil
   **   ~~~   **    1) may have a low inlet air dry-bulb temperature. Inlet air temperature = 24.201 C.
   **   ~~~   **    2) may have a low air flow rate per watt of cooling capacity. Check inputs.
   **   ~~~   **    3) is used as part of a HX assisted cooling coil which uses a high sensible effectiveness. Check inputs.
   ** Warning ** CalcDoe2DXCoil: Coil:Cooling:DX:SingleSpeed="STORAGE_4_Z12_COOLINGCOILDX" - Air volume flow rate per watt of rated total cooling capacity is out of range at 1.030E-005 m3/s/W.
   **   ~~~   **  Environment=YEAR ROUND RUN PERIOD, at Simulation time=02/10 15:15 - 15:30
   **   ~~~   ** Expected range for VolumeFlowPerRatedTotalCapacity=[2.684E-005--6.713E-005]
   **   ~~~   ** Possible causes include inconsistent air flow rates in system components,
   **   ~~~   ** or variable air volume [VAV] system using incorrect coil type.
   ** Warning ** CalcDoe2DXCoil: Coil:Cooling:DX:SingleSpeed "STORAGE_4_Z12_COOLINGCOILDX" - Full load outlet air dry-bulb temperature < 2C. This indicates the possibility of coil frost/freeze. Outlet temperature = -44.84 C.
   **   ~~~   **  ...Occurrence info = YEAR ROUND RUN PERIOD, 02/10 15:23 - 15:30
   **   ~~~   ** ... Possible reasons for low outlet air dry-bulb temperatures are: This DX coil
   **   ~~~   **    1) may have a low inlet air dry-bulb temperature. Inlet air temperature = 24.118 C.
   **   ~~~   **    2) may have a low air flow rate per watt of cooling capacity. Check inputs.
   **   ~~~   **    3) is used as part of a HX assisted cooling coil which uses a high sensible effectiveness. Check inputs.
   ** Warning ** CalcDoe2DXCoil: Coil:Cooling:DX:SingleSpeed="MECHANICAL_0_Z2_COOLINGCOILDX" - Air volume flow rate per watt of rated total cooling capacity is out of range at 1.030E-005 m3/s/W.
   **   ~~~   **  Environment=YEAR ROUND RUN PERIOD, at Simulation time=02/11 13:15 - 13:30
   **   ~~~   ** Expected range for VolumeFlowPerRatedTotalCapacity=[2.684E-005--6.713E-005]
   **   ~~~   ** Possible causes include inconsistent air flow rates in system components,
   **   ~~~   ** or variable air volume [VAV] system using incorrect coil type.
   ** Warning ** CalcDoe2DXCoil: Coil:Cooling:DX:SingleSpeed "MECHANICAL_0_Z2_COOLINGCOILDX" - Full load outlet air dry-bulb temperature < 2C. This indicates the possibility of coil frost/freeze. Outlet temperature = -44.73 C.
   **   ~~~   **  ...Occurrence info = YEAR ROUND RUN PERIOD, 02/11 13:15 - 13:22
   **   ~~~   ** ... Possible reasons for low outlet air dry-bulb temperatures are: This DX coil
   **   ~~~   **    1) may have a low inlet air dry-bulb temperature. Inlet air temperature = 24.139 C.
   **   ~~~   **    2) may have a low air flow rate per watt of cooling capacity. Check inputs.
   **   ~~~   **    3) is used as part of a HX assisted cooling coil which uses a high sensible effectiveness. Check inputs.
   ** Warning ** CalcDoe2DXCoil: Coil:Cooling:DX:SingleSpeed="LOBBY_2_Z6_COOLINGCOILDX" - Air volume flow rate per watt of rated total cooling capacity is out of range at 1.032E-005 m3/s/W.
   **   ~~~   **  Environment=YEAR ROUND RUN PERIOD, at Simulation time=02/11 13:23 - 13:30
   **   ~~~   ** Expected range for VolumeFlowPerRatedTotalCapacity=[2.684E-005--6.713E-005]
   **   ~~~   ** Possible causes include inconsistent air flow rates in system components,
   **   ~~~   ** or variable air volume [VAV] system using incorrect coil type.
   ** Warning ** CalcDoe2DXCoil: Coil:Cooling:DX:SingleSpeed "LOBBY_2_Z6_COOLINGCOILDX" - Full load outlet air dry-bulb temperature < 2C. This indicates the possibility of coil frost/freeze. Outlet temperature = -44.26 C.
   **   ~~~   **  ...Occurrence info = YEAR ROUND RUN PERIOD, 02/11 13:23 - 13:30
   **   ~~~   ** ... Possible reasons for low outlet air dry-bulb temperatures are: This DX coil
   **   ~~~   **    1) may have a low inlet air dry-bulb temperature. Inlet air temperature = 24.120 C.
   **   ~~~   **    2) may have a low air flow rate per watt of cooling capacity. Check inputs.
   **   ~~~   **    3) is used as part of a HX assisted cooling coil which uses a high sensible effectiveness. Check inputs.
   ** Warning ** CalcDoe2DXCoil: Coil:Cooling:DX:SingleSpeed "BREAK_ROOM_0_Z1_COOLINGCOILDX" - Air-cooled condenser inlet dry-bulb temperature below 0 C. Outdoor dry-bulb temperature = -4.40
   **   ~~~   **  ... Occurrence info = YEAR ROUND RUN PERIOD, 02/15 14:38 - 14:45
   **   ~~~   ** ... Operation at low ambient temperatures may require special performance curves.
   ** Warning ** CalcDoe2DXCoil: Coil:Cooling:DX:SingleSpeed "BREAK_ROOM_1_Z4_COOLINGCOILDX" - Air-cooled condenser inlet dry-bulb temperature below 0 C. Outdoor dry-bulb temperature = -4.40
   **   ~~~   **  ... Occurrence info = YEAR ROUND RUN PERIOD, 02/15 14:38 - 14:45
   **   ~~~   ** ... Operation at low ambient temperatures may require special performance curves.
   ** Warning ** CalcDoe2DXCoil: Coil:Cooling:DX:SingleSpeed "BREAK_ROOM_4_Z10_COOLINGCOILDX" - Air-cooled condenser inlet dry-bulb temperature below 0 C. Outdoor dry-bulb temperature = -4.40
   **   ~~~   **  ... Occurrence info = YEAR ROUND RUN PERIOD, 02/15 14:53 - 15:00
   **   ~~~   ** ... Operation at low ambient temperatures may require special performance curves.
   ** Warning ** CalcDoe2DXCoil: Coil:Cooling:DX:SingleSpeed "STORAGE_2_Z7_COOLINGCOILDX" - Air-cooled condenser inlet dry-bulb temperature below 0 C. Outdoor dry-bulb temperature = -3.30
   **   ~~~   **  ... Occurrence info = YEAR ROUND RUN PERIOD, 02/16 15:30 - 15:35
   **   ~~~   ** ... Operation at low ambient temperatures may require special performance curves.
   ** Warning ** CalcDoe2DXCoil: Coil:Cooling:DX:SingleSpeed "CONFERENCE_4_Z9_COOLINGCOILDX" - Air-cooled condenser inlet dry-bulb temperature below 0 C. Outdoor dry-bulb temperature = -3.30
   **   ~~~   **  ... Occurrence info = YEAR ROUND RUN PERIOD, 02/16 15:40 - 15:45
   **   ~~~   ** ... Operation at low ambient temperatures may require special performance curves.
   ** Warning ** CalcDoe2DXCoil: Coil:Cooling:DX:SingleSpeed "MECHANICAL_0_Z2_COOLINGCOILDX" - Air-cooled condenser inlet dry-bulb temperature below 0 C. Outdoor dry-bulb temperature = -0.55
   **   ~~~   **  ... Occurrence info = YEAR ROUND RUN PERIOD, 03/17 17:00 - 17:05
   **   ~~~   ** ... Operation at low ambient temperatures may require special performance curves.
   ** Warning ** CalcDoe2DXCoil: Coil:Cooling:DX:SingleSpeed "STORAGE_0_Z3_COOLINGCOILDX" - Air-cooled condenser inlet dry-bulb temperature below 0 C. Outdoor dry-bulb temperature = -0.55
   **   ~~~   **  ... Occurrence info = YEAR ROUND RUN PERIOD, 03/17 17:00 - 17:05
   **   ~~~   ** ... Operation at low ambient temperatures may require special performance curves.
   ** Warning ** CalcDoe2DXCoil: Coil:Cooling:DX:SingleSpeed "STORAGE_1_Z5_COOLINGCOILDX" - Air-cooled condenser inlet dry-bulb temperature below 0 C. Outdoor dry-bulb temperature = -0.55
   **   ~~~   **  ... Occurrence info = YEAR ROUND RUN PERIOD, 03/17 17:00 - 17:05
   **   ~~~   ** ... Operation at low ambient temperatures may require special performance curves.
   ** Warning ** CalcDoe2DXCoil: Coil:Cooling:DX:SingleSpeed "LOBBY_2_Z6_COOLINGCOILDX" - Air-cooled condenser inlet dry-bulb temperature below 0 C. Outdoor dry-bulb temperature = -0.55
   **   ~~~   **  ... Occurrence info = YEAR ROUND RUN PERIOD, 03/17 17:00 - 17:05
   **   ~~~   ** ... Operation at low ambient temperatures may require special performance curves.
   ** Warning ** CalcDoe2DXCoil: Coil:Cooling:DX:SingleSpeed "OFFICE_PRIVATE_3_Z8_COOLINGCOILDX" - Air-cooled condenser inlet dry-bulb temperature below 0 C. Outdoor dry-bulb temperature = -0.55
   **   ~~~   **  ... Occurrence info = YEAR ROUND RUN PERIOD, 03/17 17:00 - 17:05
   **   ~~~   ** ... Operation at low ambient temperatures may require special performance curves.
   ** Warning ** CalcDoe2DXCoil: Coil:Cooling:DX:SingleSpeed "OFFICE_PRIVATE_4_Z11_COOLINGCOILDX" - Air-cooled condenser inlet dry-bulb temperature below 0 C. Outdoor dry-bulb temperature = -0.55
   **   ~~~   **  ... Occurrence info = YEAR ROUND RUN PERIOD, 03/17 17:00 - 17:05
   **   ~~~   ** ... Operation at low ambient temperatures may require special performance curves.
   ** Warning ** CalcDoe2DXCoil: Coil:Cooling:DX:SingleSpeed "STORAGE_4_Z12_COOLINGCOILDX" - Air-cooled condenser inlet dry-bulb temperature below 0 C. Outdoor dry-bulb temperature = -0.55
   **   ~~~   **  ... Occurrence info = YEAR ROUND RUN PERIOD, 03/17 17:00 - 17:05
   **   ~~~   ** ... Operation at low ambient temperatures may require special performance curves.
   ************* Simulation Error Summary *************
   ************* There are 1 unused schedules in input.
   ************* Use Output:Diagnostics,DisplayUnusedSchedules; to see them.
   *************
   ************* ===== Recurring Error Summary =====
   ************* The following recurring error messages occurred.
   *************
   *************  ** Warning ** CalcDoe2DXCoil: Coil:Cooling:DX:SingleSpeed="BREAK_ROOM_0_Z1_COOLINGCOILDX": Energy Input Ratio Modifier curve (function of temperature) output is negative warning continues...
   *************  **   ~~~   **   This error occurred 578 total times;
   *************  **   ~~~   **   during Warmup 1 times;
   *************  **   ~~~   **   during Sizing 0 times.
   *************  **   ~~~   **   Max=-0.000008  Min=-0.033347
   *************
   *************  ** Warning ** CalcDoe2DXCoil: Coil:Cooling:DX:SingleSpeed="MECHANICAL_0_Z2_COOLINGCOILDX": Energy Input Ratio Modifier curve (function of temperature) output is negative warning continues...
   *************  **   ~~~   **   This error occurred 2183 total times;
   *************  **   ~~~   **   during Warmup 1 times;
   *************  **   ~~~   **   during Sizing 0 times.
   *************  **   ~~~   **   Max=-0.000047  Min=-0.033347
   *************
   *************  ** Warning ** CalcDoe2DXCoil: Coil:Cooling:DX:SingleSpeed="STORAGE_0_Z3_COOLINGCOILDX": Energy Input Ratio Modifier curve (function of temperature) output is negative warning continues...
   *************  **   ~~~   **   This error occurred 2083 total times;
   *************  **   ~~~   **   during Warmup 1 times;
   *************  **   ~~~   **   during Sizing 0 times.
   *************  **   ~~~   **   Max=-0.000001  Min=-0.033347
   *************
   *************  ** Warning ** CalcDoe2DXCoil: Coil:Cooling:DX:SingleSpeed="BREAK_ROOM_1_Z4_COOLINGCOILDX": Energy Input Ratio Modifier curve (function of temperature) output is negative warning continues...
   *************  **   ~~~   **   This error occurred 603 total times;
   *************  **   ~~~   **   during Warmup 1 times;
   *************  **   ~~~   **   during Sizing 0 times.
   *************  **   ~~~   **   Max=-0.000063  Min=-0.033347
   *************
   *************  ** Warning ** CalcDoe2DXCoil: Coil:Cooling:DX:SingleSpeed="STORAGE_1_Z5_COOLINGCOILDX": Energy Input Ratio Modifier curve (function of temperature) output is negative warning continues...
   *************  **   ~~~   **   This error occurred 1138 total times;
   *************  **   ~~~   **   during Warmup 1 times;
   *************  **   ~~~   **   during Sizing 0 times.
   *************  **   ~~~   **   Max=-0.000098  Min=-0.033347
   *************
   *************  ** Warning ** CalcDoe2DXCoil: Coil:Cooling:DX:SingleSpeed="LOBBY_2_Z6_COOLINGCOILDX": Energy Input Ratio Modifier curve (function of temperature) output is negative warning continues...
   *************  **   ~~~   **   This error occurred 2188 total times;
   *************  **   ~~~   **   during Warmup 1 times;
   *************  **   ~~~   **   during Sizing 0 times.
   *************  **   ~~~   **   Max=-0.000009  Min=-0.033347
   *************
   *************  ** Warning ** CalcDoe2DXCoil: Coil:Cooling:DX:SingleSpeed="STORAGE_2_Z7_COOLINGCOILDX": Energy Input Ratio Modifier curve (function of temperature) output is negative warning continues...
   *************  **   ~~~   **   This error occurred 1163 total times;
   *************  **   ~~~   **   during Warmup 1 times;
   *************  **   ~~~   **   during Sizing 0 times.
   *************  **   ~~~   **   Max=-0.000138  Min=-0.033347
   *************
   *************  ** Warning ** CalcDoe2DXCoil: Coil:Cooling:DX:SingleSpeed="OFFICE_PRIVATE_3_Z8_COOLINGCOILDX": Energy Input Ratio Modifier curve (function of temperature) output is negative warning continues...
   *************  **   ~~~   **   This error occurred 888 total times;
   *************  **   ~~~   **   during Warmup 1 times;
   *************  **   ~~~   **   during Sizing 0 times.
   *************  **   ~~~   **   Max=-0.000017  Min=-0.033347
   *************
   *************  ** Warning ** CalcDoe2DXCoil: Coil:Cooling:DX:SingleSpeed="CONFERENCE_4_Z9_COOLINGCOILDX": Energy Input Ratio Modifier curve (function of temperature) output is negative warning continues...
   *************  **   ~~~   **   This error occurred 379 total times;
   *************  **   ~~~   **   during Warmup 1 times;
   *************  **   ~~~   **   during Sizing 0 times.
   *************  **   ~~~   **   Max=-0.000018  Min=-0.033347
   *************
   *************  ** Warning ** CalcDoe2DXCoil: Coil:Cooling:DX:SingleSpeed="BREAK_ROOM_4_Z10_COOLINGCOILDX": Energy Input Ratio Modifier curve (function of temperature) output is negative warning continues...
   *************  **   ~~~   **   This error occurred 678 total times;
   *************  **   ~~~   **   during Warmup 1 times;
   *************  **   ~~~   **   during Sizing 0 times.
   *************  **   ~~~   **   Max=-0.000094  Min=-0.033347
   *************
   *************  ** Warning ** CalcDoe2DXCoil: Coil:Cooling:DX:SingleSpeed="OFFICE_PRIVATE_4_Z11_COOLINGCOILDX": Energy Input Ratio Modifier curve (function of temperature) output is negative warning continues...
   *************  **   ~~~   **   This error occurred 1113 total times;
   *************  **   ~~~   **   during Warmup 1 times;
   *************  **   ~~~   **   during Sizing 0 times.
   *************  **   ~~~   **   Max=-0.000072  Min=-0.033347
   *************
   *************  ** Warning ** CalcDoe2DXCoil: Coil:Cooling:DX:SingleSpeed="STORAGE_4_Z12_COOLINGCOILDX": Energy Input Ratio Modifier curve (function of temperature) output is negative warning continues...
   *************  **   ~~~   **   This error occurred 2308 total times;
   *************  **   ~~~   **   during Warmup 1 times;
   *************  **   ~~~   **   during Sizing 0 times.
   *************  **   ~~~   **   Max=-0.000017  Min=-0.033347
   *************
   *************  ** Warning ** CalcDoe2DXCoil: Coil:Cooling:DX:SingleSpeed="BREAK_ROOM_0_Z1_COOLINGCOILDX" - Air volume flow rate per watt of rated total cooling capacity is out of range error continues...
   *************  **   ~~~   **   This error occurred 91114 total times;
   *************  **   ~~~   **   during Warmup 0 times;
   *************  **   ~~~   **   during Sizing 0 times.
   *************  **   ~~~   **   Max=0.000011  Min=0.000010
   *************
   *************  ** Warning ** CalcDoe2DXCoil: Coil:Cooling:DX:SingleSpeed="BREAK_ROOM_0_Z1_COOLINGCOILDX" - Full load outlet temperature indicates a possibility of frost/freeze error continues. Outlet air temperature statistics follow:
   *************  **   ~~~   **   This error occurred 35656 total times;
   *************  **   ~~~   **   during Warmup 0 times;
   *************  **   ~~~   **   during Sizing 0 times.
   *************  **   ~~~   **   Max=-29.309760  Min=-46.228088
   *************
   *************  ** Warning ** CalcDoe2DXCoil: Coil:Cooling:DX:SingleSpeed="BREAK_ROOM_1_Z4_COOLINGCOILDX" - Air volume flow rate per watt of rated total cooling capacity is out of range error continues...
   *************  **   ~~~   **   This error occurred 90570 total times;
   *************  **   ~~~   **   during Warmup 0 times;
   *************  **   ~~~   **   during Sizing 0 times.
   *************  **   ~~~   **   Max=0.000011  Min=0.000010
   *************
   *************  ** Warning ** CalcDoe2DXCoil: Coil:Cooling:DX:SingleSpeed="BREAK_ROOM_1_Z4_COOLINGCOILDX" - Full load outlet temperature indicates a possibility of frost/freeze error continues. Outlet air temperature statistics follow:
   *************  **   ~~~   **   This error occurred 35441 total times;
   *************  **   ~~~   **   during Warmup 0 times;
   *************  **   ~~~   **   during Sizing 0 times.
   *************  **   ~~~   **   Max=-29.326686  Min=-46.243392
   *************
   *************  ** Warning ** CalcDoe2DXCoil: Coil:Cooling:DX:SingleSpeed="STORAGE_1_Z5_COOLINGCOILDX" - Air volume flow rate per watt of rated total cooling capacity is out of range error continues...
   *************  **   ~~~   **   This error occurred 82640 total times;
   *************  **   ~~~   **   during Warmup 0 times;
   *************  **   ~~~   **   during Sizing 0 times.
   *************  **   ~~~   **   Max=0.000011  Min=0.000010
   *************
   *************  ** Warning ** CalcDoe2DXCoil: Coil:Cooling:DX:SingleSpeed="BREAK_ROOM_4_Z10_COOLINGCOILDX" - Air volume flow rate per watt of rated total cooling capacity is out of range error continues...
   *************  **   ~~~   **   This error occurred 90078 total times;
   *************  **   ~~~   **   during Warmup 0 times;
   *************  **   ~~~   **   during Sizing 0 times.
   *************  **   ~~~   **   Max=0.000011  Min=0.000010
   *************
   *************  ** Warning ** CalcDoe2DXCoil: Coil:Cooling:DX:SingleSpeed="STORAGE_1_Z5_COOLINGCOILDX" - Full load outlet temperature indicates a possibility of frost/freeze error continues. Outlet air temperature statistics follow:
   *************  **   ~~~   **   This error occurred 32207 total times;
   *************  **   ~~~   **   during Warmup 0 times;
   *************  **   ~~~   **   during Sizing 0 times.
   *************  **   ~~~   **   Max=-29.688805  Min=-46.683175
   *************
   *************  ** Warning ** CalcDoe2DXCoil: Coil:Cooling:DX:SingleSpeed="BREAK_ROOM_4_Z10_COOLINGCOILDX" - Full load outlet temperature indicates a possibility of frost/freeze error continues. Outlet air temperature statistics follow:
   *************  **   ~~~   **   This error occurred 35246 total times;
   *************  **   ~~~   **   during Warmup 0 times;
   *************  **   ~~~   **   during Sizing 0 times.
   *************  **   ~~~   **   Max=-29.366021  Min=-46.296533
   *************
   *************  ** Warning ** CalcDoe2DXCoil: Coil:Cooling:DX:SingleSpeed="STORAGE_2_Z7_COOLINGCOILDX" - Air volume flow rate per watt of rated total cooling capacity is out of range error continues...
   *************  **   ~~~   **   This error occurred 84778 total times;
   *************  **   ~~~   **   during Warmup 0 times;
   *************  **   ~~~   **   during Sizing 0 times.
   *************  **   ~~~   **   Max=0.000011  Min=0.000010
   *************
   *************  ** Warning ** CalcDoe2DXCoil: Coil:Cooling:DX:SingleSpeed="STORAGE_2_Z7_COOLINGCOILDX" - Full load outlet temperature indicates a possibility of frost/freeze error continues. Outlet air temperature statistics follow:
   *************  **   ~~~   **   This error occurred 33070 total times;
   *************  **   ~~~   **   during Warmup 0 times;
   *************  **   ~~~   **   during Sizing 0 times.
   *************  **   ~~~   **   Max=-29.743322  Min=-46.854446
   *************
   *************  ** Warning ** CalcDoe2DXCoil: Coil:Cooling:DX:SingleSpeed="OFFICE_PRIVATE_3_Z8_COOLINGCOILDX" - Air volume flow rate per watt of rated total cooling capacity is out of range error continues...
   *************  **   ~~~   **   This error occurred 87778 total times;
   *************  **   ~~~   **   during Warmup 0 times;
   *************  **   ~~~   **   during Sizing 0 times.
   *************  **   ~~~   **   Max=0.000011  Min=0.000010
   *************
   *************  ** Warning ** CalcDoe2DXCoil: Coil:Cooling:DX:SingleSpeed="OFFICE_PRIVATE_3_Z8_COOLINGCOILDX" - Full load outlet temperature indicates a possibility of frost/freeze error continues. Outlet air temperature statistics follow:
   *************  **   ~~~   **   This error occurred 34312 total times;
   *************  **   ~~~   **   during Warmup 0 times;
   *************  **   ~~~   **   during Sizing 0 times.
   *************  **   ~~~   **   Max=-29.194014  Min=-52.155929
   *************
   *************  ** Warning ** CalcDoe2DXCoil: Coil:Cooling:DX:SingleSpeed="CONFERENCE_4_Z9_COOLINGCOILDX" - Air volume flow rate per watt of rated total cooling capacity is out of range error continues...
   *************  **   ~~~   **   This error occurred 89082 total times;
   *************  **   ~~~   **   during Warmup 0 times;
   *************  **   ~~~   **   during Sizing 0 times.
   *************  **   ~~~   **   Max=0.000012  Min=0.000010
   *************
   *************  ** Warning ** CalcDoe2DXCoil: Coil:Cooling:DX:SingleSpeed="CONFERENCE_4_Z9_COOLINGCOILDX" - Full load outlet temperature indicates a possibility of frost/freeze error continues. Outlet air temperature statistics follow:
   *************  **   ~~~   **   This error occurred 34855 total times;
   *************  **   ~~~   **   during Warmup 0 times;
   *************  **   ~~~   **   during Sizing 0 times.
   *************  **   ~~~   **   Max=-9.694182  Min=-46.699232
   *************
   *************  ** Warning ** CalcDoe2DXCoil: Coil:Cooling:DX:SingleSpeed="OFFICE_PRIVATE_4_Z11_COOLINGCOILDX" - Air volume flow rate per watt of rated total cooling capacity is out of range error continues...
   *************  **   ~~~   **   This error occurred 88612 total times;
   *************  **   ~~~   **   during Warmup 0 times;
   *************  **   ~~~   **   during Sizing 0 times.
   *************  **   ~~~   **   Max=0.000011  Min=0.000010
   *************
   *************  ** Warning ** CalcDoe2DXCoil: Coil:Cooling:DX:SingleSpeed="OFFICE_PRIVATE_4_Z11_COOLINGCOILDX" - Full load outlet temperature indicates a possibility of frost/freeze error continues. Outlet air temperature statistics follow:
   *************  **   ~~~   **   This error occurred 34671 total times;
   *************  **   ~~~   **   during Warmup 0 times;
   *************  **   ~~~   **   during Sizing 0 times.
   *************  **   ~~~   **   Max=-29.420728  Min=-52.411494
   *************
   *************  ** Warning ** CalcDoe2DXCoil: Coil:Cooling:DX:SingleSpeed="STORAGE_0_Z3_COOLINGCOILDX" - Air volume flow rate per watt of rated total cooling capacity is out of range error continues...
   *************  **   ~~~   **   This error occurred 86034 total times;
   *************  **   ~~~   **   during Warmup 0 times;
   *************  **   ~~~   **   during Sizing 0 times.
   *************  **   ~~~   **   Max=0.000011  Min=0.000010
   *************
   *************  ** Warning ** CalcDoe2DXCoil: Coil:Cooling:DX:SingleSpeed="STORAGE_0_Z3_COOLINGCOILDX" - Full load outlet temperature indicates a possibility of frost/freeze error continues. Outlet air temperature statistics follow:
   *************  **   ~~~   **   This error occurred 33626 total times;
   *************  **   ~~~   **   during Warmup 0 times;
   *************  **   ~~~   **   during Sizing 0 times.
   *************  **   ~~~   **   Max=-30.027922  Min=-51.588999
   *************
   *************  ** Warning ** CalcDoe2DXCoil: Coil:Cooling:DX:SingleSpeed="STORAGE_4_Z12_COOLINGCOILDX" - Air volume flow rate per watt of rated total cooling capacity is out of range error continues...
   *************  **   ~~~   **   This error occurred 84366 total times;
   *************  **   ~~~   **   during Warmup 0 times;
   *************  **   ~~~   **   during Sizing 0 times.
   *************  **   ~~~   **   Max=0.000011  Min=0.000010
   *************
   *************  ** Warning ** CalcDoe2DXCoil: Coil:Cooling:DX:SingleSpeed="STORAGE_4_Z12_COOLINGCOILDX" - Full load outlet temperature indicates a possibility of frost/freeze error continues. Outlet air temperature statistics follow:
   *************  **   ~~~   **   This error occurred 32960 total times;
   *************  **   ~~~   **   during Warmup 0 times;
   *************  **   ~~~   **   during Sizing 0 times.
   *************  **   ~~~   **   Max=-30.075766  Min=-51.776179
   *************
   *************  ** Warning ** CalcDoe2DXCoil: Coil:Cooling:DX:SingleSpeed="MECHANICAL_0_Z2_COOLINGCOILDX" - Air volume flow rate per watt of rated total cooling capacity is out of range error continues...
   *************  **   ~~~   **   This error occurred 84934 total times;
   *************  **   ~~~   **   during Warmup 0 times;
   *************  **   ~~~   **   during Sizing 0 times.
   *************  **   ~~~   **   Max=0.000011  Min=0.000010
   *************
   *************  ** Warning ** CalcDoe2DXCoil: Coil:Cooling:DX:SingleSpeed="MECHANICAL_0_Z2_COOLINGCOILDX" - Full load outlet temperature indicates a possibility of frost/freeze error continues. Outlet air temperature statistics follow:
   *************  **   ~~~   **   This error occurred 33183 total times;
   *************  **   ~~~   **   during Warmup 0 times;
   *************  **   ~~~   **   during Sizing 0 times.
   *************  **   ~~~   **   Max=-30.056605  Min=-52.124291
   *************
   *************  ** Warning ** CalcDoe2DXCoil: Coil:Cooling:DX:SingleSpeed="LOBBY_2_Z6_COOLINGCOILDX" - Air volume flow rate per watt of rated total cooling capacity is out of range error continues...
   *************  **   ~~~   **   This error occurred 87802 total times;
   *************  **   ~~~   **   during Warmup 0 times;
   *************  **   ~~~   **   during Sizing 0 times.
   *************  **   ~~~   **   Max=0.000011  Min=0.000010
   *************
   *************  ** Warning ** CalcDoe2DXCoil: Coil:Cooling:DX:SingleSpeed="LOBBY_2_Z6_COOLINGCOILDX" - Full load outlet temperature indicates a possibility of frost/freeze error continues. Outlet air temperature statistics follow:
   *************  **   ~~~   **   This error occurred 34357 total times;
   *************  **   ~~~   **   during Warmup 0 times;
   *************  **   ~~~   **   during Sizing 0 times.
   *************  **   ~~~   **   Max=-30.028485  Min=-48.472136
   *************
   *************  ** Warning ** CalcDoe2DXCoil: Coil:Cooling:DX:SingleSpeed="BREAK_ROOM_0_Z1_COOLINGCOILDX" - Low condenser dry-bulb temperature error continues...
   *************  **   ~~~   **   This error occurred 123 total times;
   *************  **   ~~~   **   during Warmup 0 times;
   *************  **   ~~~   **   during Sizing 0 times.
   *************  **   ~~~   **   Max=-0.025000 [C]  Min=-6.000000 [C]
   *************
   *************  ** Warning ** CalcDoe2DXCoil: Coil:Cooling:DX:SingleSpeed="BREAK_ROOM_1_Z4_COOLINGCOILDX" - Low condenser dry-bulb temperature error continues...
   *************  **   ~~~   **   This error occurred 110 total times;
   *************  **   ~~~   **   during Warmup 0 times;
   *************  **   ~~~   **   during Sizing 0 times.
   *************  **   ~~~   **   Max=-0.025000 [C]  Min=-5.600000 [C]
   *************
   *************  ** Warning ** CalcDoe2DXCoil: Coil:Cooling:DX:SingleSpeed="BREAK_ROOM_4_Z10_COOLINGCOILDX" - Low condenser dry-bulb temperature error continues...
   *************  **   ~~~   **   This error occurred 102 total times;
   *************  **   ~~~   **   during Warmup 0 times;
   *************  **   ~~~   **   during Sizing 0 times.
   *************  **   ~~~   **   Max=-0.025000 [C]  Min=-5.600000 [C]
   *************
   *************  ** Warning ** CalcDoe2DXCoil: Coil:Cooling:DX:SingleSpeed="STORAGE_2_Z7_COOLINGCOILDX" - Low condenser dry-bulb temperature error continues...
   *************  **   ~~~   **   This error occurred 54 total times;
   *************  **   ~~~   **   during Warmup 0 times;
   *************  **   ~~~   **   during Sizing 0 times.
   *************  **   ~~~   **   Max=-0.025000 [C]  Min=-4.125000 [C]
   *************
   *************  ** Warning ** CalcDoe2DXCoil: Coil:Cooling:DX:SingleSpeed="CONFERENCE_4_Z9_COOLINGCOILDX" - Low condenser dry-bulb temperature error continues...
   *************  **   ~~~   **   This error occurred 66 total times;
   *************  **   ~~~   **   during Warmup 0 times;
   *************  **   ~~~   **   during Sizing 0 times.
   *************  **   ~~~   **   Max=-0.025000 [C]  Min=-3.575000 [C]
   *************
   *************  ** Warning ** CalcDoe2DXCoil: Coil:Cooling:DX:SingleSpeed="MECHANICAL_0_Z2_COOLINGCOILDX" - Low condenser dry-bulb temperature error continues...
   *************  **   ~~~   **   This error occurred 41 total times;
   *************  **   ~~~   **   during Warmup 0 times;
   *************  **   ~~~   **   during Sizing 0 times.
   *************  **   ~~~   **   Max=-0.425000 [C]  Min=-2.750000 [C]
   *************
   *************  ** Warning ** CalcDoe2DXCoil: Coil:Cooling:DX:SingleSpeed="STORAGE_0_Z3_COOLINGCOILDX" - Low condenser dry-bulb temperature error continues...
   *************  **   ~~~   **   This error occurred 47 total times;
   *************  **   ~~~   **   during Warmup 0 times;
   *************  **   ~~~   **   during Sizing 0 times.
   *************  **   ~~~   **   Max=-0.025000 [C]  Min=-2.750000 [C]
   *************
   *************  ** Warning ** CalcDoe2DXCoil: Coil:Cooling:DX:SingleSpeed="STORAGE_1_Z5_COOLINGCOILDX" - Low condenser dry-bulb temperature error continues...
   *************  **   ~~~   **   This error occurred 15 total times;
   *************  **   ~~~   **   during Warmup 0 times;
   *************  **   ~~~   **   during Sizing 0 times.
   *************  **   ~~~   **   Max=-0.425000 [C]  Min=-1.650000 [C]
   *************
   *************  ** Warning ** CalcDoe2DXCoil: Coil:Cooling:DX:SingleSpeed="LOBBY_2_Z6_COOLINGCOILDX" - Low condenser dry-bulb temperature error continues...
   *************  **   ~~~   **   This error occurred 54 total times;
   *************  **   ~~~   **   during Warmup 0 times;
   *************  **   ~~~   **   during Sizing 0 times.
   *************  **   ~~~   **   Max=-0.425000 [C]  Min=-3.025000 [C]
   *************
   *************  ** Warning ** CalcDoe2DXCoil: Coil:Cooling:DX:SingleSpeed="OFFICE_PRIVATE_3_Z8_COOLINGCOILDX" - Low condenser dry-bulb temperature error continues...
   *************  **   ~~~   **   This error occurred 51 total times;
   *************  **   ~~~   **   during Warmup 0 times;
   *************  **   ~~~   **   during Sizing 0 times.
   *************  **   ~~~   **   Max=-0.425000 [C]  Min=-3.025000 [C]
   *************
   *************  ** Warning ** CalcDoe2DXCoil: Coil:Cooling:DX:SingleSpeed="OFFICE_PRIVATE_4_Z11_COOLINGCOILDX" - Low condenser dry-bulb temperature error continues...
   *************  **   ~~~   **   This error occurred 61 total times;
   *************  **   ~~~   **   during Warmup 0 times;
   *************  **   ~~~   **   during Sizing 0 times.
   *************  **   ~~~   **   Max=-0.025000 [C]  Min=-3.300000 [C]
   *************
   *************  ** Warning ** CalcDoe2DXCoil: Coil:Cooling:DX:SingleSpeed="STORAGE_4_Z12_COOLINGCOILDX" - Low condenser dry-bulb temperature error continues...
   *************  **   ~~~   **   This error occurred 34 total times;
   *************  **   ~~~   **   during Warmup 0 times;
   *************  **   ~~~   **   during Sizing 0 times.
   *************  **   ~~~   **   Max=-0.425000 [C]  Min=-2.475000 [C]
   *************
   ************* EnergyPlus Warmup Error Summary. During Warmup: 0 Warning; 0 Severe Errors.
   ************* EnergyPlus Sizing Error Summary. During Sizing: 0 Warning; 0 Severe Errors.
   ************* EnergyPlus Completed Successfully-- 1473517 Warning; 0 Severe Errors; Elapsed Time=00hr 00min 24.39sec
