Program Version,EnergyPlus, Version 24.2.0-94a887817b, YMD=2025.11.02 19:21
! <Version>, Version ID
 Version, 24.2.0
! <Timesteps per Hour>, #TimeSteps, Minutes per TimeStep {minutes}
 Timesteps per Hour,  4, 15
! <System Convergence Limits>, Minimum System TimeStep {minutes}, Max HVAC Iterations, Minimum Plant Iterations, Maximum Plant Iterations
 System Convergence Limits, 1, 20, 2, 8
! <Simulation Control>, Do Zone Sizing, Do System Sizing, Do Plant Sizing, Do Design Days, Do Weather Simulation, Do HVAC Sizing Simulation
 Simulation Control, No, No, No, No, Yes, No
! <Performance Precision Tradeoffs>, Use Coil Direct Simulation, Zone Radiant Exchange Algorithm, Override Mode, Number of Timestep In Hour, Force Euler Method, Minimum Number of Warmup Days, Force Suppress All Begin Environment Resets, Minimum System Timestep, MaxZoneTempDiff, MaxAllowedDelTemp
 Performance Precision Tradeoffs, No, ScriptF, Normal, 4, No, 1, No, 1.0, 0.300, 2.0000E-003
! <Output Reporting Tolerances>, Tolerance for Time Heating Setpoint Not Met, Tolerance for Zone Cooling Setpoint Not Met Time
 Output Reporting Tolerances, 0.200, 0.200, 
! <Site:GroundTemperature:BuildingSurface>,Jan{C},Feb{C},Mar{C},Apr{C},May{C},Jun{C},Jul{C},Aug{C},Sep{C},Oct{C},Nov{C},Dec{C}
 Site:GroundTemperature:BuildingSurface,  16.00,  15.00,  14.00,  13.00,  14.00,  16.00,  18.00,  19.00,  19.00,  18.00,  17.00,  16.00
! <Site:GroundTemperature:FCfactorMethod>,Jan{C},Feb{C},Mar{C},Apr{C},May{C},Jun{C},Jul{C},Aug{C},Sep{C},Oct{C},Nov{C},Dec{C}
 Site:GroundTemperature:FCfactorMethod,  -1.89,  -3.06,  -0.99,   2.23,  10.68,  17.20,  21.60,  22.94,  20.66,  15.60,   8.83,   2.56
! <Site:GroundTemperature:Shallow>,Jan{C},Feb{C},Mar{C},Apr{C},May{C},Jun{C},Jul{C},Aug{C},Sep{C},Oct{C},Nov{C},Dec{C}
 Site:GroundTemperature:Shallow,  14.00,  13.00,  12.00,  11.00,  12.00,  14.00,  16.00,  17.00,  17.00,  16.00,  15.00,  14.00
! <Site:GroundTemperature:Deep>,Jan{C},Feb{C},Mar{C},Apr{C},May{C},Jun{C},Jul{C},Aug{C},Sep{C},Oct{C},Nov{C},Dec{C}
 Site:GroundTemperature:Deep,  12.00,  11.00,  10.00,   9.00,  10.00,  12.00,  14.00,  15.00,  15.00,  14.00,  13.00,  12.00
! <Site:GroundReflectance>,Jan{dimensionless},Feb{dimensionless},Mar{dimensionless},Apr{dimensionless},May{dimensionless},Jun{dimensionless},Jul{dimensionless},Aug{dimensionless},Sep{dimensionless},Oct{dimensionless},Nov{dimensionless},Dec{dimensionless}
 Site:GroundReflectance,  0.20,  0.20,  0.20,  0.20,  0.20,  0.20,  0.20,  0.20,  0.20,  0.20,  0.20,  0.20
! <Site:GroundReflectance:SnowModifier>, Normal, Daylighting {dimensionless}
 Site:GroundReflectance:SnowModifier,   1.000,   1.000
! <Site:GroundReflectance:Snow>,Jan{dimensionless},Feb{dimensionless},Mar{dimensionless},Apr{dimensionless},May{dimensionless},Jun{dimensionless},Jul{dimensionless},Aug{dimensionless},Sep{dimensionless},Oct{dimensionless},Nov{dimensionless},Dec{dimensionless}
 Site:GroundReflectance:Snow,  0.20,  0.20,  0.20,  0.20,  0.20,  0.20,  0.20,  0.20,  0.20,  0.20,  0.20,  0.20
! <Site:GroundReflectance:Snow:Daylighting>,Jan{dimensionless},Feb{dimensionless},Mar{dimensionless},Apr{dimensionless},May{dimensionless},Jun{dimensionless},Jul{dimensionless},Aug{dimensionless},Sep{dimensionless},Oct{dimensionless},Nov{dimensionless},Dec{dimensionless}
 Site:GroundReflectance:Snow:Daylighting,  0.20,  0.20,  0.20,  0.20,  0.20,  0.20,  0.20,  0.20,  0.20,  0.20,  0.20,  0.20
! <Environment:Weather Station>,Wind Sensor Height Above Ground {m},Wind Speed Profile Exponent {},Wind Speed Profile Boundary Layer Thickness {m},Air Temperature Sensor Height Above Ground {m},Wind Speed Modifier Coefficient-Internal,Temperature Modifier Coefficient-Internal
Environment:Weather Station,10.000,0.140,270.000,1.500,1.586,9.750E-003
! <Site:Location>, Location Name, Latitude {N+/S- Deg}, Longitude {E+/W- Deg},  Time Zone Number {GMT+/-}, Elevation {m},  Standard Pressure at Elevation {Pa}, Standard RhoAir at Elevation
Site:Location,Chicago Ohare Intl Ap IL USA TMY3 WMO#=725300,41.98,-87.92,-6.00,201.00,98934,1.1759
! <Site Water Mains Temperature Information>,Calculation Method{},Water Mains Temperature Schedule Name{},Annual Average Outdoor Air Temperature{C},Maximum Difference In Monthly Average Outdoor Air Temperatures{deltaC},Fixed Default Water Mains Temperature{C}
Site Water Mains Temperature Information,FixedDefault,NA,NA,NA,10.0
! <Building Information>, Building Name,North Axis {deg},Terrain,  Loads Convergence Tolerance Value,Temperature Convergence Tolerance Value,  Solar Distribution,Maximum Number of Warmup Days,Minimum Number of Warmup Days
 Building Information,Professional Building,0.000,Suburbs,4.00000E-002,0.20000,FullInteriorAndExterior,15,6
! <Inside Convection Algorithm>, Algorithm {Simple | TARP | CeilingDiffuser | AdaptiveConvectionAlgorithm}
Inside Convection Algorithm,TARP
! <Outside Convection Algorithm>, Algorithm {SimpleCombined | TARP | MoWitt | DOE-2 | AdaptiveConvectionAlgorithm}
Outside Convection Algorithm,DOE-2
! <Sky Radiance Distribution>, Value {Anisotropic}
Sky Radiance Distribution,Anisotropic
! <Zone Air Solution Algorithm>, Algorithm {ThirdOrderBackwardDifference | AnalyticalSolution | EulerMethod}, Space Heat Balance Sizing, Space Heat Balance Simulation
 Zone Air Solution Algorithm, ThirdOrderBackwardDifference, No, No
! <Zone Air Carbon Dioxide Balance Simulation>, Simulation {Yes/No}, Carbon Dioxide Concentration
 Zone Air Carbon Dioxide Balance Simulation, No,N/A
! <Zone Air Generic Contaminant Balance Simulation>, Simulation {Yes/No}, Generic Contaminant Concentration
 Zone Air Generic Contaminant Balance Simulation, No,N/A
! <Zone Air Mass Flow Balance Simulation>, Enforce Mass Balance, Adjust Zone Mixing and Return {AdjustMixingOnly | AdjustReturnOnly | AdjustMixingThenReturn | AdjustReturnThenMixing | None}, Adjust Zone Infiltration {AddInfiltration | AdjustInfiltration | None}, Infiltration Zones {MixingSourceZonesOnly | AllZones}
 Zone Air Mass Flow Balance Simulation, No,N/A,N/A,N/A
! <HVACSystemRootFindingAlgorithm>, Value {RegulaFalsi | Bisection | BisectionThenRegulaFalsi | RegulaFalsiThenBisection}
 HVACSystemRootFindingAlgorithm, RegulaFalsi
! <Environment:Site Atmospheric Variation>,Wind Speed Profile Exponent {},Wind Speed Profile Boundary Layer Thickness {m},Air Temperature Gradient Coefficient {K/m}
Environment:Site Atmospheric Variation,0.220,370.000,6.500000E-003
! <Shadowing/Sun Position Calculations Annual Simulations>, Shading Calculation Method, Shading Calculation Update Frequency Method, Shading Calculation Update Frequency {days}, Maximum Figures in Shadow Overlap Calculations {}, Polygon Clipping Algorithm, Pixel Counting Resolution, Sky Diffuse Modeling Algorithm, Output External Shading Calculation Results, Disable Self-Shading Within Shading Zone Groups, Disable Self-Shading From Shading Zone Groups to Other Zones
Shadowing/Sun Position Calculations Annual Simulations,PolygonClipping,Periodic,20,15000,SutherlandHodgman,512,SimpleSkyDiffuseModeling,No,No,No
! <Surface Geometry>,Starting Corner,Vertex Input Direction,Coordinate System,Daylight Reference Point Coordinate System,Rectangular (Simple) Surface Coordinate System
 Surface Geometry,UpperLeftCorner,Counterclockwise,RelativeCoordinateSystem,RelativeCoordinateSystem,RelativeToZoneOrigin
! <Surface Heat Transfer Algorithm>, Value {CTF - ConductionTransferFunction | EMPD - MoisturePenetrationDepthConductionTransferFunction | CondFD - ConductionFiniteDifference | HAMT - CombinedHeatAndMoistureFiniteElement} - Description,Inside Surface Max Temperature Limit{C}, Surface Convection Coefficient Lower Limit {W/m2-K}, Surface Convection Coefficient Upper Limit {W/m2-K}
Surface Heat Transfer Algorithm, CTF - ConductionTransferFunction,200,0.10,1000.0
! <Shading Summary>, Number of Fixed Detached Shades, Number of Building Detached Shades, Number of Attached Shades
 Shading Summary,0,0,0
! <Zone Summary>, Number of Zones, Number of Zone Surfaces, Number of SubSurfaces
 Zone Summary,12,132,48
! <Zone Information>,Zone Name,North Axis {deg},Origin X-Coordinate {m},Origin Y-Coordinate {m},Origin Z-Coordinate {m},Centroid X-Coordinate {m},Centroid Y-Coordinate {m},Centroid Z-Coordinate {m},Type,Zone Multiplier,Zone List Multiplier,Minimum X {m},Maximum X {m},Minimum Y {m},Maximum Y {m},Minimum Z {m},Maximum Z {m},Ceiling Height {m},Volume {m3},Zone Inside Convection Algorithm {Simple-Detailed-CeilingDiffuser-TrombeWall},Zone Outside Convection Algorithm {Simple-Detailed-Tarp-MoWitt-DOE-2-BLAST}, Floor Area {m2},Exterior Gross Wall Area {m2},Exterior Net Wall Area {m2},Exterior Window Area {m2}, Number of Surfaces, Number of SubSurfaces, Number of Shading SubSurfaces,  Part of Total Building Area
 Zone Information, BREAK_ROOM_0,0.0,0.00,0.00,0.00,42.40,0.80,1.50,1,1,1,40.51,44.30,-2.43,4.03,0.00,3.00,3.00,70.25,TARP,DOE-2,23.42,60.25,42.11,18.13,6,4,0,Yes
 Zone Information, MECHANICAL_0,0.0,0.00,0.00,0.00,53.93,-12.64,1.50,1,1,1,51.44,56.43,-16.54,-8.75,0.00,3.00,3.00,112.81,TARP,DOE-2,37.60,75.48,52.76,22.72,6,4,0,Yes
 Zone Information, STORAGE_0,0.0,0.00,0.00,0.00,44.98,-38.56,1.50,1,1,1,42.43,47.53,-42.39,-34.73,0.00,3.00,3.00,113.44,TARP,DOE-2,37.81,75.37,52.69,22.68,6,4,0,Yes
 Zone Information, BREAK_ROOM_1,0.0,0.00,0.00,0.00,25.96,-43.65,4.50,1,1,1,24.06,27.86,-46.89,-40.40,3.00,6.00,3.00,71.09,TARP,DOE-2,23.70,60.59,42.36,18.24,6,4,0,Yes
 Zone Information, STORAGE_1,0.0,0.00,0.00,0.00,53.46,-21.72,4.50,1,1,1,51.80,55.12,-23.89,-19.55,3.00,6.00,3.00,41.11,TARP,DOE-2,13.70,44.84,31.34,13.49,6,4,0,Yes
 Zone Information, LOBBY_2,0.0,0.00,0.00,0.00,45.81,-26.64,7.50,1,1,1,42.68,48.93,-31.37,-21.91,6.00,9.00,3.00,172.71,TARP,DOE-2,57.57,93.06,65.05,28.01,6,4,0,Yes
 Zone Information, STORAGE_2,0.0,0.00,0.00,0.00,17.21,-44.44,7.50,1,1,1,15.63,18.79,-47.30,-41.58,6.00,9.00,3.00,51.58,TARP,DOE-2,17.19,52.06,36.39,15.67,6,4,0,Yes
 Zone Information, OFFICE_PRIVATE_3,0.0,0.00,0.00,0.00,10.11,-27.38,10.50,1,1,1,7.46,12.76,-30.18,-24.58,9.00,12.00,3.00,85.85,TARP,DOE-2,28.62,64.22,44.89,19.33,6,4,0,Yes
 Zone Information, CONFERENCE_4,0.0,0.00,0.00,0.00,54.81,-21.62,13.50,1,1,1,52.45,57.18,-25.42,-17.82,12.00,15.00,3.00,104.07,TARP,DOE-2,34.69,72.74,50.85,21.89,6,4,0,Yes
 Zone Information, BREAK_ROOM_4,0.0,0.00,0.00,0.00,33.88,-39.95,13.50,1,1,1,31.99,35.76,-43.46,-36.45,12.00,15.00,3.00,76.02,TARP,DOE-2,25.34,63.47,44.37,19.10,6,4,0,Yes
 Zone Information, OFFICE_PRIVATE_4,0.0,0.00,0.00,0.00,50.21,-13.88,13.50,1,1,1,47.80,52.63,-18.09,-9.66,12.00,15.00,3.00,118.41,TARP,DOE-2,39.47,78.42,54.82,23.60,6,4,0,Yes
 Zone Information, STORAGE_4,0.0,0.00,0.00,0.00,34.06,-3.91,13.50,1,1,1,31.46,36.66,-7.68,-0.14,12.00,15.00,3.00,113.96,TARP,DOE-2,37.99,75.27,52.61,22.65,6,4,0,Yes
! <Zone Internal Gains Nominal>,Zone Name, Floor Area {m2},# Occupants,Area per Occupant {m2/person},Occupant per Area {person/m2},Interior Lighting {W/m2},Electric Load {W/m2},Gas Load {W/m2},Other Load {W/m2},Hot Water Eq {W/m2},Steam Equipment {W/m2},Sum Loads per Area {W/m2},Outdoor Controlled Baseboard Heat
 Zone Internal Gains Nominal, BREAK_ROOM_0,23.42,2.0,11.709,8.540E-002,8.100,15.000,0.000,0.000,0.000,0.000,23.100,No
 Zone Internal Gains Nominal, MECHANICAL_0,37.60,1.0,37.602,2.659E-002,5.400,0.000,0.000,0.000,0.000,0.000,5.400,No
 Zone Internal Gains Nominal, STORAGE_0,37.81,1.0,37.815,2.644E-002,5.400,1.100,0.000,0.000,0.000,0.000,6.500,No
 Zone Internal Gains Nominal, BREAK_ROOM_1,23.70,2.0,11.849,8.439E-002,8.100,15.000,0.000,0.000,0.000,0.000,23.100,No
 Zone Internal Gains Nominal, STORAGE_1,13.70,1.0,13.702,7.298E-002,5.400,1.100,0.000,0.000,0.000,0.000,6.500,No
 Zone Internal Gains Nominal, LOBBY_2,57.57,2.0,28.784,3.474E-002,12.900,3.200,0.000,0.000,0.000,0.000,16.100,No
 Zone Internal Gains Nominal, STORAGE_2,17.19,1.0,17.194,5.816E-002,5.400,1.100,0.000,0.000,0.000,0.000,6.500,No
 Zone Internal Gains Nominal, OFFICE_PRIVATE_3,28.62,1.0,28.618,3.494E-002,10.800,8.100,0.000,0.000,0.000,0.000,18.900,No
 Zone Internal Gains Nominal, CONFERENCE_4,34.69,6.0,5.782,0.173,10.800,8.100,0.000,0.000,0.000,0.000,18.900,No
 Zone Internal Gains Nominal, BREAK_ROOM_4,25.34,2.0,12.670,7.893E-002,8.100,15.000,0.000,0.000,0.000,0.000,23.100,No
 Zone Internal Gains Nominal, OFFICE_PRIVATE_4,39.47,1.0,39.471,2.534E-002,10.800,8.100,0.000,0.000,0.000,0.000,18.900,No
 Zone Internal Gains Nominal, STORAGE_4,37.99,1.0,37.985,2.633E-002,5.400,1.100,0.000,0.000,0.000,0.000,6.500,No
! <People Internal Gains Nominal>,Name,Schedule Name,Zone Name,Zone Floor Area {m2},# Zone Occupants,Number of People {},People/Floor Area {person/m2},Floor Area per person {m2/person},Fraction Radiant,Fraction Convected,Sensible Fraction Calculation,Activity level,ASHRAE 55 Warnings,Carbon Dioxide Generation Rate,Minimum Number of People for All Day Types,Maximum Number of People for All Day Types,Minimum Number of People for Weekdays, Maximum Number of People for Weekdays, Minimum Number of People for Weekends/Holidays, Maximum Number of People for Weekends /Holidays,Minimum Number of People for Summer Design Days, Maximum Number of People for Summer Design Days,Minimum Number of People for Winter Design Days, Maximum Number of People for Winter Design Days
 People Internal Gains Nominal, BREAK_ROOM_0_PEOPLE,BREAK_ROOM_OCCUPANCY,BREAK_ROOM_0,23.42,2.0,2.0,8.540E-002,11.709,0.300,0.700,0.100,BREAK_ROOM_ACTIVITY,No,3.8200E-008,0.4,0.4,0.4,0.4,0.4,0.4,0.4,0.4,0.4,0.4,
 People Internal Gains Nominal, MECHANICAL_0_PEOPLE,MECHANICAL_OCCUPANCY,MECHANICAL_0,37.60,1.0,1.0,2.659E-002,37.602,0.300,0.700,0.100,MECHANICAL_ACTIVITY,No,3.8200E-008,0.2,0.2,0.2,0.2,0.2,0.2,0.2,0.2,0.2,0.2,
 People Internal Gains Nominal, STORAGE_0_PEOPLE,STORAGE_OCCUPANCY,STORAGE_0,37.81,1.0,1.0,2.644E-002,37.815,0.300,0.700,0.100,STORAGE_ACTIVITY,No,3.8200E-008,0.2,0.2,0.2,0.2,0.2,0.2,0.2,0.2,0.2,0.2,
 People Internal Gains Nominal, BREAK_ROOM_1_PEOPLE,BREAK_ROOM_OCCUPANCY,BREAK_ROOM_1,23.70,2.0,2.0,8.439E-002,11.849,0.300,0.700,0.100,BREAK_ROOM_ACTIVITY,No,3.8200E-008,0.4,0.4,0.4,0.4,0.4,0.4,0.4,0.4,0.4,0.4,
 People Internal Gains Nominal, STORAGE_1_PEOPLE,STORAGE_OCCUPANCY,STORAGE_1,13.70,1.0,1.0,7.298E-002,13.702,0.300,0.700,0.100,STORAGE_ACTIVITY,No,3.8200E-008,0.2,0.2,0.2,0.2,0.2,0.2,0.2,0.2,0.2,0.2,
 People Internal Gains Nominal, LOBBY_2_PEOPLE,LOBBY_OCCUPANCY,LOBBY_2,57.57,2.0,2.0,3.474E-002,28.784,0.300,0.700,0.100,LOBBY_ACTIVITY,No,3.8200E-008,0.4,0.4,0.4,0.4,0.4,0.4,0.4,0.4,0.4,0.4,
 People Internal Gains Nominal, STORAGE_2_PEOPLE,STORAGE_OCCUPANCY,STORAGE_2,17.19,1.0,1.0,5.816E-002,17.194,0.300,0.700,0.100,STORAGE_ACTIVITY,No,3.8200E-008,0.2,0.2,0.2,0.2,0.2,0.2,0.2,0.2,0.2,0.2,
 People Internal Gains Nominal, OFFICE_PRIVATE_3_PEOPLE,OFFICE_OPEN_OCCUPANCY,OFFICE_PRIVATE_3,28.62,1.0,1.0,3.494E-002,28.618,0.300,0.700,0.100,OFFICE_OPEN_ACTIVITY,No,3.8200E-008,0.0,1.0,0.0,1.0,0.0,0.1,0.0,0.0,0.0,0.0,
 People Internal Gains Nominal, CONFERENCE_4_PEOPLE,CONFERENCE_OCCUPANCY,CONFERENCE_4,34.69,6.0,6.0,0.173,5.782,0.300,0.700,0.100,CONFERENCE_ACTIVITY,No,3.8200E-008,0.0,6.0,0.0,6.0,0.0,0.6,0.0,0.0,0.0,0.0,
 People Internal Gains Nominal, BREAK_ROOM_4_PEOPLE,BREAK_ROOM_OCCUPANCY,BREAK_ROOM_4,25.34,2.0,2.0,7.893E-002,12.670,0.300,0.700,0.100,BREAK_ROOM_ACTIVITY,No,3.8200E-008,0.4,0.4,0.4,0.4,0.4,0.4,0.4,0.4,0.4,0.4,
 People Internal Gains Nominal, OFFICE_PRIVATE_4_PEOPLE,OFFICE_OPEN_OCCUPANCY,OFFICE_PRIVATE_4,39.47,1.0,1.0,2.534E-002,39.471,0.300,0.700,0.100,OFFICE_OPEN_ACTIVITY,No,3.8200E-008,0.0,1.0,0.0,1.0,0.0,0.1,0.0,0.0,0.0,0.0,
 People Internal Gains Nominal, STORAGE_4_PEOPLE,STORAGE_OCCUPANCY,STORAGE_4,37.99,1.0,1.0,2.633E-002,37.985,0.300,0.700,0.100,STORAGE_ACTIVITY,No,3.8200E-008,0.2,0.2,0.2,0.2,0.2,0.2,0.2,0.2,0.2,0.2,
! <Lights Internal Gains Nominal>,Name,Schedule Name,Zone Name,Zone Floor Area {m2},# Zone Occupants,Lighting Level {W},Lights/Floor Area {W/m2},Lights per person {W/person},Fraction Return Air,Fraction Radiant,Fraction Short Wave,Fraction Convected,Fraction Replaceable,End-Use, Minimum Lighting Level for All Day Types {W},Maximum Lighting Level for All Day Types {W},Minimum Lighting Level for Weekdays {W}, Maximum Lighting Level for Weekdays {W},Minimum Lighting Level for Weekends/Holidays {W}, Maximum Lighting Level for Weekends /Holidays {W},Minimum Lighting Level for Summer Design Days {W}, Maximum Lighting Level for Summer Design Days {W},Minimum Lighting Level for Winter Design Days {W}, Maximum Lighting Level for Winter Design Days {W}
 Lights Internal Gains Nominal, BREAK_ROOM_0_LIGHTS,BREAK_ROOM_LIGHTING,BREAK_ROOM_0,23.42,2.0,189.686,8.100,94.843,0.000,0.300,0.200,0.500,1.000,General,0.000,189.686,18.969,189.7,0.000,37.937,0.000,0.000,0.000,0.000
 Lights Internal Gains Nominal, MECHANICAL_0_LIGHTS,MECHANICAL_LIGHTING,MECHANICAL_0,37.60,1.0,203.049,5.400,203.049,0.000,0.300,0.200,0.500,1.000,General,0.000,203.049,20.305,203.0,0.000,40.610,0.000,0.000,0.000,0.000
 Lights Internal Gains Nominal, STORAGE_0_LIGHTS,STORAGE_LIGHTING,STORAGE_0,37.81,1.0,204.201,5.400,204.201,0.000,0.300,0.200,0.500,1.000,General,0.000,204.201,20.420,204.2,0.000,40.840,0.000,0.000,0.000,0.000
 Lights Internal Gains Nominal, BREAK_ROOM_1_LIGHTS,BREAK_ROOM_LIGHTING,BREAK_ROOM_1,23.70,2.0,191.955,8.100,95.978,0.000,0.300,0.200,0.500,1.000,General,0.000,191.955,19.196,192.0,0.000,38.391,0.000,0.000,0.000,0.000
 Lights Internal Gains Nominal, STORAGE_1_LIGHTS,STORAGE_LIGHTING,STORAGE_1,13.70,1.0,73.993,5.400,73.993,0.000,0.300,0.200,0.500,1.000,General,0.000,73.993,7.399,74.0,0.000,14.799,0.000,0.000,0.000,0.000
 Lights Internal Gains Nominal, LOBBY_2_LIGHTS,LOBBY_LIGHTING,LOBBY_2,57.57,2.0,742.636,12.900,371.318,0.000,0.300,0.200,0.500,1.000,General,0.000,742.636,74.264,742.6,0.000,148.527,0.000,0.000,0.000,0.000
 Lights Internal Gains Nominal, STORAGE_2_LIGHTS,STORAGE_LIGHTING,STORAGE_2,17.19,1.0,92.850,5.400,92.850,0.000,0.300,0.200,0.500,1.000,General,0.000,92.850,9.285,92.8,0.000,18.570,0.000,0.000,0.000,0.000
 Lights Internal Gains Nominal, OFFICE_PRIVATE_3_LIGHTS,OFFICE_OPEN_LIGHTING,OFFICE_PRIVATE_3,28.62,1.0,309.076,10.800,309.076,0.000,0.300,0.200,0.500,1.000,General,0.000,309.076,30.908,309.1,0.000,61.815,0.000,0.000,0.000,0.000
 Lights Internal Gains Nominal, CONFERENCE_4_LIGHTS,CONFERENCE_LIGHTING,CONFERENCE_4,34.69,6.0,374.667,10.800,62.444,0.000,0.300,0.200,0.500,1.000,General,0.000,374.667,37.467,374.7,0.000,74.933,0.000,0.000,0.000,0.000
 Lights Internal Gains Nominal, BREAK_ROOM_4_LIGHTS,BREAK_ROOM_LIGHTING,BREAK_ROOM_4,25.34,2.0,205.250,8.100,102.625,0.000,0.300,0.200,0.500,1.000,General,0.000,205.250,20.525,205.2,0.000,41.050,0.000,0.000,0.000,0.000
 Lights Internal Gains Nominal, OFFICE_PRIVATE_4_LIGHTS,OFFICE_OPEN_LIGHTING,OFFICE_PRIVATE_4,39.47,1.0,426.281,10.800,426.281,0.000,0.300,0.200,0.500,1.000,General,0.000,426.281,42.628,426.3,0.000,85.256,0.000,0.000,0.000,0.000
 Lights Internal Gains Nominal, STORAGE_4_LIGHTS,STORAGE_LIGHTING,STORAGE_4,37.99,1.0,205.121,5.400,205.121,0.000,0.300,0.200,0.500,1.000,General,0.000,205.121,20.512,205.1,0.000,41.024,0.000,0.000,0.000,0.000
! <ElectricEquipment Internal Gains Nominal>,Name,Schedule Name,Zone Name,Zone Floor Area {m2},# Zone Occupants,Equipment Level {W},Equipment/Floor Area {W/m2},Equipment per person {W/person},Fraction Latent,Fraction Radiant,Fraction Lost,Fraction Convected,End-Use SubCategory,Minimum Equipment Level for All Day Types {W},Maximum Equipment Level for All Day Types {W},Minimum Equipment Level for Weekdays {W}, Maximum Equipment Level for Weekdays {W},Minimum Equipment Level for Weekends/Holidays {W}, Maximum Equipment Level for Weekends /Holidays {W},Minimum Equipment Level for Summer Design Days {W}, Maximum Equipment Level for Summer Design Days {W},Minimum Equipment Level for Winter Design Days {W}, Maximum Equipment Level for Winter Design Days {W}
 ElectricEquipment Internal Gains Nominal, BREAK_ROOM_0_EQUIPMENT,BREAK_ROOM_EQUIPMENT,BREAK_ROOM_0,23.42,2.0,351.270,15.000,175.635,0.100,0.200,0.000,0.700,General,0.000,281.016,105.381,281.016,0.000,105.381,0.000,0.000,0.000,0.000
 ElectricEquipment Internal Gains Nominal, MECHANICAL_0_EQUIPMENT,MECHANICAL_EQUIPMENT,MECHANICAL_0,37.60,1.0,0.000,0.000,0.000,0.100,0.200,0.000,0.700,General,0.000,0.000,0.000,0.000,0.000,0.000,0.000,0.000,0.000,0.000
 ElectricEquipment Internal Gains Nominal, STORAGE_0_EQUIPMENT,STORAGE_EQUIPMENT,STORAGE_0,37.81,1.0,41.596,1.100,41.596,0.100,0.200,0.000,0.700,General,0.000,33.277,12.479,33.277,0.000,12.479,0.000,0.000,0.000,0.000
 ElectricEquipment Internal Gains Nominal, BREAK_ROOM_1_EQUIPMENT,BREAK_ROOM_EQUIPMENT,BREAK_ROOM_1,23.70,2.0,355.473,15.000,177.736,0.100,0.200,0.000,0.700,General,0.000,284.378,106.642,284.378,0.000,106.642,0.000,0.000,0.000,0.000
 ElectricEquipment Internal Gains Nominal, STORAGE_1_EQUIPMENT,STORAGE_EQUIPMENT,STORAGE_1,13.70,1.0,15.073,1.100,15.073,0.100,0.200,0.000,0.700,General,0.000,12.058,4.522,12.058,0.000,4.522,0.000,0.000,0.000,0.000
 ElectricEquipment Internal Gains Nominal, LOBBY_2_EQUIPMENT,LOBBY_EQUIPMENT,LOBBY_2,57.57,2.0,184.220,3.200,92.110,0.100,0.200,0.000,0.700,General,0.000,147.376,55.266,147.376,0.000,55.266,0.000,0.000,0.000,0.000
 ElectricEquipment Internal Gains Nominal, STORAGE_2_EQUIPMENT,STORAGE_EQUIPMENT,STORAGE_2,17.19,1.0,18.914,1.100,18.914,0.100,0.200,0.000,0.700,General,0.000,15.131,5.674,15.131,0.000,5.674,0.000,0.000,0.000,0.000
 ElectricEquipment Internal Gains Nominal, OFFICE_PRIVATE_3_EQUIPMENT,OFFICE_OPEN_EQUIPMENT,OFFICE_PRIVATE_3,28.62,1.0,231.807,8.100,231.807,0.100,0.200,0.000,0.700,General,0.000,185.445,69.542,185.445,0.000,69.542,0.000,0.000,0.000,0.000
 ElectricEquipment Internal Gains Nominal, CONFERENCE_4_EQUIPMENT,CONFERENCE_EQUIPMENT,CONFERENCE_4,34.69,6.0,281.000,8.100,46.833,0.100,0.200,0.000,0.700,General,0.000,224.800,84.300,224.800,0.000,84.300,0.000,0.000,0.000,0.000
 ElectricEquipment Internal Gains Nominal, BREAK_ROOM_4_EQUIPMENT,BREAK_ROOM_EQUIPMENT,BREAK_ROOM_4,25.34,2.0,380.092,15.000,190.046,0.100,0.200,0.000,0.700,General,0.000,304.074,114.028,304.074,0.000,114.028,0.000,0.000,0.000,0.000
 ElectricEquipment Internal Gains Nominal, OFFICE_PRIVATE_4_EQUIPMENT,OFFICE_OPEN_EQUIPMENT,OFFICE_PRIVATE_4,39.47,1.0,319.711,8.100,319.711,0.100,0.200,0.000,0.700,General,0.000,255.769,95.913,255.769,0.000,95.913,0.000,0.000,0.000,0.000
 ElectricEquipment Internal Gains Nominal, STORAGE_4_EQUIPMENT,STORAGE_EQUIPMENT,STORAGE_4,37.99,1.0,41.784,1.100,41.784,0.100,0.200,0.000,0.700,General,0.000,33.427,12.535,33.427,0.000,12.535,0.000,0.000,0.000,0.000
! <Enclosure/Window Adjacency Daylighting Counts>, Enclosure Name, Number of Exterior Windows, Number of Exterior Windows in Adjacent Enclosures
Enclosure/Window Adjacency Daylighting Counts, BREAK_ROOM_0,4,0
Enclosure/Window Adjacency Daylighting Counts, BREAK_ROOM_1,4,0
Enclosure/Window Adjacency Daylighting Counts, LOBBY_2,4,0
Enclosure/Window Adjacency Daylighting Counts, OFFICE_PRIVATE_3,4,0
Enclosure/Window Adjacency Daylighting Counts, CONFERENCE_4,4,0
Enclosure/Window Adjacency Daylighting Counts, BREAK_ROOM_4,4,0
Enclosure/Window Adjacency Daylighting Counts, OFFICE_PRIVATE_4,4,0
! <Enclosure/Window Adjacency Daylighting Matrix>, Enclosure Name, Number of Adjacent Enclosures with Windows,Adjacent Enclosure Names - 1st 100 (max)
Enclosure/Window Adjacency Daylighting Matrix, BREAK_ROOM_0,0
Enclosure/Window Adjacency Daylighting Matrix, BREAK_ROOM_1,0
Enclosure/Window Adjacency Daylighting Matrix, LOBBY_2,0
Enclosure/Window Adjacency Daylighting Matrix, OFFICE_PRIVATE_3,0
Enclosure/Window Adjacency Daylighting Matrix, CONFERENCE_4,0
Enclosure/Window Adjacency Daylighting Matrix, BREAK_ROOM_4,0
Enclosure/Window Adjacency Daylighting Matrix, OFFICE_PRIVATE_4,0
! <ZoneInfiltration Airflow Stats Nominal>,Name,Schedule Name,Zone Name, Zone Floor Area {m2}, # Zone Occupants,Design Volume Flow Rate {m3/s},Volume Flow Rate/Floor Area {m3/s-m2},Volume Flow Rate/Exterior Surface Area {m3/s-m2},ACH - Air Changes per Hour,Equation A - Constant Term Coefficient {},Equation B - Temperature Term Coefficient {1/C},Equation C - Velocity Term Coefficient {s/m}, Equation D - Velocity Squared Term Coefficient {s2/m2}
 ZoneInfiltration Airflow Stats Nominal, BREAK_ROOM_0_INFILTRATION,BREAK_ROOM_0_INFILTRATION_SCHEDULE,BREAK_ROOM_0,23.42,2.0,0.000,0.000,0.000,0.000,0.000,0.000,0.000,0.000
 ZoneInfiltration Airflow Stats Nominal, MECHANICAL_0_INFILTRATION,MECHANICAL_0_INFILTRATION_SCHEDULE,MECHANICAL_0,37.60,1.0,0.000,0.000,0.000,0.000,0.000,0.000,0.000,0.000
 ZoneInfiltration Airflow Stats Nominal, STORAGE_0_INFILTRATION,STORAGE_0_INFILTRATION_SCHEDULE,STORAGE_0,37.81,1.0,0.000,0.000,0.000,0.000,0.000,0.000,0.000,0.000
 ZoneInfiltration Airflow Stats Nominal, BREAK_ROOM_1_INFILTRATION,BREAK_ROOM_1_INFILTRATION_SCHEDULE,BREAK_ROOM_1,23.70,2.0,0.000,0.000,0.000,0.000,0.000,0.000,0.000,0.000
 ZoneInfiltration Airflow Stats Nominal, STORAGE_1_INFILTRATION,STORAGE_1_INFILTRATION_SCHEDULE,STORAGE_1,13.70,1.0,0.000,0.000,0.000,0.000,0.000,0.000,0.000,0.000
 ZoneInfiltration Airflow Stats Nominal, LOBBY_2_INFILTRATION,LOBBY_2_INFILTRATION_SCHEDULE,LOBBY_2,57.57,2.0,0.000,0.000,0.000,0.000,0.000,0.000,0.000,0.000
 ZoneInfiltration Airflow Stats Nominal, STORAGE_2_INFILTRATION,STORAGE_2_INFILTRATION_SCHEDULE,STORAGE_2,17.19,1.0,0.000,0.000,0.000,0.000,0.000,0.000,0.000,0.000
 ZoneInfiltration Airflow Stats Nominal, OFFICE_PRIVATE_3_INFILTRATION,OFFICE_PRIVATE_3_INFILTRATION_SCHEDULE,OFFICE_PRIVATE_3,28.62,1.0,0.000,0.000,0.000,0.000,0.000,0.000,0.000,0.000
 ZoneInfiltration Airflow Stats Nominal, CONFERENCE_4_INFILTRATION,CONFERENCE_4_INFILTRATION_SCHEDULE,CONFERENCE_4,34.69,6.0,0.000,0.000,0.000,0.000,0.000,0.000,0.000,0.000
 ZoneInfiltration Airflow Stats Nominal, BREAK_ROOM_4_INFILTRATION,BREAK_ROOM_4_INFILTRATION_SCHEDULE,BREAK_ROOM_4,25.34,2.0,0.000,0.000,0.000,0.000,0.000,0.000,0.000,0.000
 ZoneInfiltration Airflow Stats Nominal, OFFICE_PRIVATE_4_INFILTRATION,OFFICE_PRIVATE_4_INFILTRATION_SCHEDULE,OFFICE_PRIVATE_4,39.47,1.0,0.000,0.000,0.000,0.000,0.000,0.000,0.000,0.000
 ZoneInfiltration Airflow Stats Nominal, STORAGE_4_INFILTRATION,STORAGE_4_INFILTRATION_SCHEDULE,STORAGE_4,37.99,1.0,0.000,0.000,0.000,0.000,0.000,0.000,0.000,0.000
! <AirFlow Model>, Simple
 AirFlow Model, Simple
! <RoomAir Model>, Zone Name, Mixing/Mundt/UCSDDV/UCSDCV/UCSDUFI/UCSDUFE/User Defined
RoomAir Model,BREAK_ROOM_0,Mixing/Well-Stirred
RoomAir Model,MECHANICAL_0,Mixing/Well-Stirred
RoomAir Model,STORAGE_0,Mixing/Well-Stirred
RoomAir Model,BREAK_ROOM_1,Mixing/Well-Stirred
RoomAir Model,STORAGE_1,Mixing/Well-Stirred
RoomAir Model,LOBBY_2,Mixing/Well-Stirred
RoomAir Model,STORAGE_2,Mixing/Well-Stirred
RoomAir Model,OFFICE_PRIVATE_3,Mixing/Well-Stirred
RoomAir Model,CONFERENCE_4,Mixing/Well-Stirred
RoomAir Model,BREAK_ROOM_4,Mixing/Well-Stirred
RoomAir Model,OFFICE_PRIVATE_4,Mixing/Well-Stirred
RoomAir Model,STORAGE_4,Mixing/Well-Stirred
! <AirflowNetwork Model:Control>, No Multizone or Distribution/Multizone with Distribution/Multizone without Distribution/Multizone with Distribution only during Fan Operation
AirflowNetwork Model:Control,NoMultizoneOrDistribution
! <Zone Volume Capacitance Multiplier>, Sensible Heat Capacity Multiplier, Moisture Capacity Multiplier, Carbon Dioxide Capacity Multiplier, Generic Contaminant Capacity Multiplier
Zone Volume Capacitance Multiplier,   1.000 ,   1.000,   1.000,   1.000
! <Component Sizing Information>, Component Type, Component Name, Input Field Description, Value
 Component Sizing Information, AirTerminal:SingleDuct:VAV:Reheat, BREAK_ROOM_0_Z1_VAVTERMINAL, User-Specified Maximum Air Flow Rate [m3/s], 0.11709
 Component Sizing Information, AirTerminal:SingleDuct:VAV:Reheat, BREAK_ROOM_0_Z1_VAVTERMINAL, Design Size Constant Minimum Air Flow Fraction, 0.20000
 Component Sizing Information, AirTerminal:SingleDuct:VAV:Reheat, BREAK_ROOM_0_Z1_VAVTERMINAL, User-Specified Constant Minimum Air Flow Fraction, 0.20000
 Component Sizing Information, AirTerminal:SingleDuct:VAV:Reheat, BREAK_ROOM_0_Z1_VAVTERMINAL, Design Size Minimum Air Flow Rate [m3/s], 2.34180E-002
 Component Sizing Information, AirTerminal:SingleDuct:VAV:Reheat, BREAK_ROOM_0_Z1_VAVTERMINAL, Design Size Maximum Flow per Zone Floor Area during Reheat [m3/s-m2], 1.00000E-003
 Component Sizing Information, AirTerminal:SingleDuct:VAV:Reheat, BREAK_ROOM_0_Z1_VAVTERMINAL, Design Size Maximum Flow Fraction during Reheat [], 0.20000
 Component Sizing Information, AirTerminal:SingleDuct:VAV:Reheat, BREAK_ROOM_0_Z1_VAVTERMINAL, User-Specified Maximum Reheat Water Flow Rate [m3/s], 1.87344
 Component Sizing Information, Coil:Heating:Electric, BREAK_ROOM_0_Z1_REHEATCOIL, User-Specified Nominal Capacity [W], 562.03314
 Component Sizing Information, AirTerminal:SingleDuct:VAV:Reheat, MECHANICAL_0_Z2_VAVTERMINAL, User-Specified Maximum Air Flow Rate [m3/s], 0.18801
 Component Sizing Information, AirTerminal:SingleDuct:VAV:Reheat, MECHANICAL_0_Z2_VAVTERMINAL, Design Size Constant Minimum Air Flow Fraction, 0.20000
 Component Sizing Information, AirTerminal:SingleDuct:VAV:Reheat, MECHANICAL_0_Z2_VAVTERMINAL, User-Specified Constant Minimum Air Flow Fraction, 0.20000
 Component Sizing Information, AirTerminal:SingleDuct:VAV:Reheat, MECHANICAL_0_Z2_VAVTERMINAL, Design Size Minimum Air Flow Rate [m3/s], 3.76017E-002
 Component Sizing Information, AirTerminal:SingleDuct:VAV:Reheat, MECHANICAL_0_Z2_VAVTERMINAL, Design Size Maximum Flow per Zone Floor Area during Reheat [m3/s-m2], 1.00000E-003
 Component Sizing Information, AirTerminal:SingleDuct:VAV:Reheat, MECHANICAL_0_Z2_VAVTERMINAL, Design Size Maximum Flow Fraction during Reheat [], 0.20000
 Component Sizing Information, AirTerminal:SingleDuct:VAV:Reheat, MECHANICAL_0_Z2_VAVTERMINAL, User-Specified Maximum Reheat Water Flow Rate [m3/s], 3.00814
 Component Sizing Information, Coil:Heating:Electric, MECHANICAL_0_Z2_REHEATCOIL, User-Specified Nominal Capacity [W], 902.44150
 Component Sizing Information, AirTerminal:SingleDuct:VAV:Reheat, STORAGE_0_Z3_VAVTERMINAL, User-Specified Maximum Air Flow Rate [m3/s], 0.18908
 Component Sizing Information, AirTerminal:SingleDuct:VAV:Reheat, STORAGE_0_Z3_VAVTERMINAL, Design Size Constant Minimum Air Flow Fraction, 0.20000
 Component Sizing Information, AirTerminal:SingleDuct:VAV:Reheat, STORAGE_0_Z3_VAVTERMINAL, User-Specified Constant Minimum Air Flow Fraction, 0.20000
 Component Sizing Information, AirTerminal:SingleDuct:VAV:Reheat, STORAGE_0_Z3_VAVTERMINAL, Design Size Minimum Air Flow Rate [m3/s], 3.78154E-002
 Component Sizing Information, AirTerminal:SingleDuct:VAV:Reheat, STORAGE_0_Z3_VAVTERMINAL, Design Size Maximum Flow per Zone Floor Area during Reheat [m3/s-m2], 1.00001E-003
 Component Sizing Information, AirTerminal:SingleDuct:VAV:Reheat, STORAGE_0_Z3_VAVTERMINAL, Design Size Maximum Flow Fraction during Reheat [], 0.20000
 Component Sizing Information, AirTerminal:SingleDuct:VAV:Reheat, STORAGE_0_Z3_VAVTERMINAL, User-Specified Maximum Reheat Water Flow Rate [m3/s], 3.02523
 Component Sizing Information, Coil:Heating:Electric, STORAGE_0_Z3_REHEATCOIL, User-Specified Nominal Capacity [W], 907.56936
 Component Sizing Information, AirTerminal:SingleDuct:VAV:Reheat, BREAK_ROOM_1_Z4_VAVTERMINAL, User-Specified Maximum Air Flow Rate [m3/s], 0.11849
 Component Sizing Information, AirTerminal:SingleDuct:VAV:Reheat, BREAK_ROOM_1_Z4_VAVTERMINAL, Design Size Constant Minimum Air Flow Fraction, 0.20000
 Component Sizing Information, AirTerminal:SingleDuct:VAV:Reheat, BREAK_ROOM_1_Z4_VAVTERMINAL, User-Specified Constant Minimum Air Flow Fraction, 0.20000
 Component Sizing Information, AirTerminal:SingleDuct:VAV:Reheat, BREAK_ROOM_1_Z4_VAVTERMINAL, Design Size Minimum Air Flow Rate [m3/s], 2.36986E-002
 Component Sizing Information, AirTerminal:SingleDuct:VAV:Reheat, BREAK_ROOM_1_Z4_VAVTERMINAL, Design Size Maximum Flow per Zone Floor Area during Reheat [m3/s-m2], 1.00002E-003
 Component Sizing Information, AirTerminal:SingleDuct:VAV:Reheat, BREAK_ROOM_1_Z4_VAVTERMINAL, Design Size Maximum Flow Fraction during Reheat [], 0.20000
 Component Sizing Information, AirTerminal:SingleDuct:VAV:Reheat, BREAK_ROOM_1_Z4_VAVTERMINAL, User-Specified Maximum Reheat Water Flow Rate [m3/s], 1.89589
 Component Sizing Information, Coil:Heating:Electric, BREAK_ROOM_1_Z4_REHEATCOIL, User-Specified Nominal Capacity [W], 568.76561
 Component Sizing Information, AirTerminal:SingleDuct:VAV:Reheat, STORAGE_1_Z5_VAVTERMINAL, User-Specified Maximum Air Flow Rate [m3/s], 6.85121E-002
 Component Sizing Information, AirTerminal:SingleDuct:VAV:Reheat, STORAGE_1_Z5_VAVTERMINAL, Design Size Constant Minimum Air Flow Fraction, 0.20000
 Component Sizing Information, AirTerminal:SingleDuct:VAV:Reheat, STORAGE_1_Z5_VAVTERMINAL, User-Specified Constant Minimum Air Flow Fraction, 0.20000
 Component Sizing Information, AirTerminal:SingleDuct:VAV:Reheat, STORAGE_1_Z5_VAVTERMINAL, Design Size Minimum Air Flow Rate [m3/s], 1.37024E-002
 Component Sizing Information, AirTerminal:SingleDuct:VAV:Reheat, STORAGE_1_Z5_VAVTERMINAL, Design Size Maximum Flow per Zone Floor Area during Reheat [m3/s-m2], 1.00000E-003
 Component Sizing Information, AirTerminal:SingleDuct:VAV:Reheat, STORAGE_1_Z5_VAVTERMINAL, Design Size Maximum Flow Fraction during Reheat [], 0.20000
 Component Sizing Information, AirTerminal:SingleDuct:VAV:Reheat, STORAGE_1_Z5_VAVTERMINAL, User-Specified Maximum Reheat Water Flow Rate [m3/s], 1.09619
 Component Sizing Information, Coil:Heating:Electric, STORAGE_1_Z5_REHEATCOIL, User-Specified Nominal Capacity [W], 328.85807
 Component Sizing Information, AirTerminal:SingleDuct:VAV:Reheat, LOBBY_2_Z6_VAVTERMINAL, User-Specified Maximum Air Flow Rate [m3/s], 0.28785
 Component Sizing Information, AirTerminal:SingleDuct:VAV:Reheat, LOBBY_2_Z6_VAVTERMINAL, Design Size Constant Minimum Air Flow Fraction, 0.20000
 Component Sizing Information, AirTerminal:SingleDuct:VAV:Reheat, LOBBY_2_Z6_VAVTERMINAL, User-Specified Constant Minimum Air Flow Fraction, 0.20000
 Component Sizing Information, AirTerminal:SingleDuct:VAV:Reheat, LOBBY_2_Z6_VAVTERMINAL, Design Size Minimum Air Flow Rate [m3/s], 5.75691E-002
 Component Sizing Information, AirTerminal:SingleDuct:VAV:Reheat, LOBBY_2_Z6_VAVTERMINAL, Design Size Maximum Flow per Zone Floor Area during Reheat [m3/s-m2], 1.00001E-003
 Component Sizing Information, AirTerminal:SingleDuct:VAV:Reheat, LOBBY_2_Z6_VAVTERMINAL, Design Size Maximum Flow Fraction during Reheat [], 0.20000
 Component Sizing Information, AirTerminal:SingleDuct:VAV:Reheat, LOBBY_2_Z6_VAVTERMINAL, User-Specified Maximum Reheat Water Flow Rate [m3/s], 4.60553
 Component Sizing Information, Coil:Heating:Electric, LOBBY_2_Z6_REHEATCOIL, User-Specified Nominal Capacity [W], 1381.65896
 Component Sizing Information, AirTerminal:SingleDuct:VAV:Reheat, STORAGE_2_Z7_VAVTERMINAL, User-Specified Maximum Air Flow Rate [m3/s], 8.59725E-002
 Component Sizing Information, AirTerminal:SingleDuct:VAV:Reheat, STORAGE_2_Z7_VAVTERMINAL, Design Size Constant Minimum Air Flow Fraction, 0.20000
 Component Sizing Information, AirTerminal:SingleDuct:VAV:Reheat, STORAGE_2_Z7_VAVTERMINAL, User-Specified Constant Minimum Air Flow Fraction, 0.20000
 Component Sizing Information, AirTerminal:SingleDuct:VAV:Reheat, STORAGE_2_Z7_VAVTERMINAL, Design Size Minimum Air Flow Rate [m3/s], 1.71945E-002
 Component Sizing Information, AirTerminal:SingleDuct:VAV:Reheat, STORAGE_2_Z7_VAVTERMINAL, Design Size Maximum Flow per Zone Floor Area during Reheat [m3/s-m2], 1.00001E-003
 Component Sizing Information, AirTerminal:SingleDuct:VAV:Reheat, STORAGE_2_Z7_VAVTERMINAL, Design Size Maximum Flow Fraction during Reheat [], 0.20000
 Component Sizing Information, AirTerminal:SingleDuct:VAV:Reheat, STORAGE_2_Z7_VAVTERMINAL, User-Specified Maximum Reheat Water Flow Rate [m3/s], 1.37556
 Component Sizing Information, Coil:Heating:Electric, STORAGE_2_Z7_REHEATCOIL, User-Specified Nominal Capacity [W], 412.66802
 Component Sizing Information, AirTerminal:SingleDuct:VAV:Reheat, OFFICE_PRIVATE_3_Z8_VAVTERMINAL, User-Specified Maximum Air Flow Rate [m3/s], 0.14309
 Component Sizing Information, AirTerminal:SingleDuct:VAV:Reheat, OFFICE_PRIVATE_3_Z8_VAVTERMINAL, Design Size Constant Minimum Air Flow Fraction, 0.20000
 Component Sizing Information, AirTerminal:SingleDuct:VAV:Reheat, OFFICE_PRIVATE_3_Z8_VAVTERMINAL, User-Specified Constant Minimum Air Flow Fraction, 0.20000
 Component Sizing Information, AirTerminal:SingleDuct:VAV:Reheat, OFFICE_PRIVATE_3_Z8_VAVTERMINAL, Design Size Minimum Air Flow Rate [m3/s], 2.86178E-002
 Component Sizing Information, AirTerminal:SingleDuct:VAV:Reheat, OFFICE_PRIVATE_3_Z8_VAVTERMINAL, Design Size Maximum Flow per Zone Floor Area during Reheat [m3/s-m2], 9.99989E-004
 Component Sizing Information, AirTerminal:SingleDuct:VAV:Reheat, OFFICE_PRIVATE_3_Z8_VAVTERMINAL, Design Size Maximum Flow Fraction during Reheat [], 0.20000
 Component Sizing Information, AirTerminal:SingleDuct:VAV:Reheat, OFFICE_PRIVATE_3_Z8_VAVTERMINAL, User-Specified Maximum Reheat Water Flow Rate [m3/s], 2.28942
 Component Sizing Information, Coil:Heating:Electric, OFFICE_PRIVATE_3_Z8_REHEATCOIL, User-Specified Nominal Capacity [W], 686.82706
 Component Sizing Information, AirTerminal:SingleDuct:VAV:Reheat, CONFERENCE_4_Z9_VAVTERMINAL, User-Specified Maximum Air Flow Rate [m3/s], 0.17346
 Component Sizing Information, AirTerminal:SingleDuct:VAV:Reheat, CONFERENCE_4_Z9_VAVTERMINAL, Design Size Constant Minimum Air Flow Fraction, 0.20000
 Component Sizing Information, AirTerminal:SingleDuct:VAV:Reheat, CONFERENCE_4_Z9_VAVTERMINAL, User-Specified Constant Minimum Air Flow Fraction, 0.20000
 Component Sizing Information, AirTerminal:SingleDuct:VAV:Reheat, CONFERENCE_4_Z9_VAVTERMINAL, Design Size Minimum Air Flow Rate [m3/s], 3.46913E-002
 Component Sizing Information, AirTerminal:SingleDuct:VAV:Reheat, CONFERENCE_4_Z9_VAVTERMINAL, Design Size Maximum Flow per Zone Floor Area during Reheat [m3/s-m2], 9.99997E-004
 Component Sizing Information, AirTerminal:SingleDuct:VAV:Reheat, CONFERENCE_4_Z9_VAVTERMINAL, Design Size Maximum Flow Fraction during Reheat [], 0.20000
 Component Sizing Information, AirTerminal:SingleDuct:VAV:Reheat, CONFERENCE_4_Z9_VAVTERMINAL, User-Specified Maximum Reheat Water Flow Rate [m3/s], 2.77530
 Component Sizing Information, Coil:Heating:Electric, CONFERENCE_4_Z9_REHEATCOIL, User-Specified Nominal Capacity [W], 832.59038
 Component Sizing Information, AirTerminal:SingleDuct:VAV:Reheat, BREAK_ROOM_4_Z10_VAVTERMINAL, User-Specified Maximum Air Flow Rate [m3/s], 0.12670
 Component Sizing Information, AirTerminal:SingleDuct:VAV:Reheat, BREAK_ROOM_4_Z10_VAVTERMINAL, Design Size Constant Minimum Air Flow Fraction, 0.20000
 Component Sizing Information, AirTerminal:SingleDuct:VAV:Reheat, BREAK_ROOM_4_Z10_VAVTERMINAL, User-Specified Constant Minimum Air Flow Fraction, 0.20000
 Component Sizing Information, AirTerminal:SingleDuct:VAV:Reheat, BREAK_ROOM_4_Z10_VAVTERMINAL, Design Size Minimum Air Flow Rate [m3/s], 2.53395E-002
 Component Sizing Information, AirTerminal:SingleDuct:VAV:Reheat, BREAK_ROOM_4_Z10_VAVTERMINAL, Design Size Maximum Flow per Zone Floor Area during Reheat [m3/s-m2], 1.00000E-003
 Component Sizing Information, AirTerminal:SingleDuct:VAV:Reheat, BREAK_ROOM_4_Z10_VAVTERMINAL, Design Size Maximum Flow Fraction during Reheat [], 0.20000
 Component Sizing Information, AirTerminal:SingleDuct:VAV:Reheat, BREAK_ROOM_4_Z10_VAVTERMINAL, User-Specified Maximum Reheat Water Flow Rate [m3/s], 2.02716
 Component Sizing Information, Coil:Heating:Electric, BREAK_ROOM_4_Z10_REHEATCOIL, User-Specified Nominal Capacity [W], 608.14778
 Component Sizing Information, AirTerminal:SingleDuct:VAV:Reheat, OFFICE_PRIVATE_4_Z11_VAVTERMINAL, User-Specified Maximum Air Flow Rate [m3/s], 0.19735
 Component Sizing Information, AirTerminal:SingleDuct:VAV:Reheat, OFFICE_PRIVATE_4_Z11_VAVTERMINAL, Design Size Constant Minimum Air Flow Fraction, 0.20000
 Component Sizing Information, AirTerminal:SingleDuct:VAV:Reheat, OFFICE_PRIVATE_4_Z11_VAVTERMINAL, User-Specified Constant Minimum Air Flow Fraction, 0.20000
 Component Sizing Information, AirTerminal:SingleDuct:VAV:Reheat, OFFICE_PRIVATE_4_Z11_VAVTERMINAL, Design Size Minimum Air Flow Rate [m3/s], 3.94700E-002
 Component Sizing Information, AirTerminal:SingleDuct:VAV:Reheat, OFFICE_PRIVATE_4_Z11_VAVTERMINAL, Design Size Maximum Flow per Zone Floor Area during Reheat [m3/s-m2], 9.99987E-004
 Component Sizing Information, AirTerminal:SingleDuct:VAV:Reheat, OFFICE_PRIVATE_4_Z11_VAVTERMINAL, Design Size Maximum Flow Fraction during Reheat [], 0.20000
 Component Sizing Information, AirTerminal:SingleDuct:VAV:Reheat, OFFICE_PRIVATE_4_Z11_VAVTERMINAL, User-Specified Maximum Reheat Water Flow Rate [m3/s], 3.15760
 Component Sizing Information, Coil:Heating:Electric, OFFICE_PRIVATE_4_Z11_REHEATCOIL, User-Specified Nominal Capacity [W], 947.28005
 Component Sizing Information, AirTerminal:SingleDuct:VAV:Reheat, STORAGE_4_Z12_VAVTERMINAL, User-Specified Maximum Air Flow Rate [m3/s], 0.18992
 Component Sizing Information, AirTerminal:SingleDuct:VAV:Reheat, STORAGE_4_Z12_VAVTERMINAL, Design Size Constant Minimum Air Flow Fraction, 0.20000
 Component Sizing Information, AirTerminal:SingleDuct:VAV:Reheat, STORAGE_4_Z12_VAVTERMINAL, User-Specified Constant Minimum Air Flow Fraction, 0.20000
 Component Sizing Information, AirTerminal:SingleDuct:VAV:Reheat, STORAGE_4_Z12_VAVTERMINAL, Design Size Minimum Air Flow Rate [m3/s], 3.79849E-002
 Component Sizing Information, AirTerminal:SingleDuct:VAV:Reheat, STORAGE_4_Z12_VAVTERMINAL, Design Size Maximum Flow per Zone Floor Area during Reheat [m3/s-m2], 9.99989E-004
 Component Sizing Information, AirTerminal:SingleDuct:VAV:Reheat, STORAGE_4_Z12_VAVTERMINAL, Design Size Maximum Flow Fraction during Reheat [], 0.20000
 Component Sizing Information, AirTerminal:SingleDuct:VAV:Reheat, STORAGE_4_Z12_VAVTERMINAL, User-Specified Maximum Reheat Water Flow Rate [m3/s], 3.03879
 Component Sizing Information, Coil:Heating:Electric, STORAGE_4_Z12_REHEATCOIL, User-Specified Nominal Capacity [W], 911.63730
 Component Sizing Information, Coil:Cooling:DX:SingleSpeed, BREAK_ROOM_0_Z1_COOLINGCOILDX, User-Specified Rated Air Flow Rate [m3/s], 0.11709
 Component Sizing Information, Coil:Cooling:DX:SingleSpeed, BREAK_ROOM_0_Z1_COOLINGCOILDX, User-Specified Gross Rated Total Cooling Capacity [W], 2341.80473
 Component Sizing Information, Coil:Cooling:DX:SingleSpeed, BREAK_ROOM_0_Z1_COOLINGCOILDX, User-Specified Gross Rated Sensible Heat Ratio, 0.75000
! <DX Cooling Coil Standard Rating Information>, Component Type, Component Name, Standard Rating (Net) Cooling Capacity {W}, Standard Rating Net COP {W/W}, EER {Btu/W-h}, SEER User {Btu/W-h}, SEER Standard {Btu/W-h}, IEER {Btu/W-h}
 DX Cooling Coil Standard Rating Information, Coil:Cooling:DX:SingleSpeed, BREAK_ROOM_0_Z1_COOLINGCOILDX, 2250.9, 39.98, 136.43, 54.18, 51.26, 37.2
! <DX Cooling Coil AHRI 2023 Standard Rating Information>, Component Type, Component Name, Standard Rating (Net) Cooling Capacity {W}, Standard Rating Net COP2 {W/W}, EER2 {Btu/W-h}, SEER2 User {Btu/W-h}, SEER2 Standard {Btu/W-h}, IEER 2022 {Btu/W-h}
 DX Cooling Coil AHRI 2023 Standard Rating Information, Coil:Cooling:DX:SingleSpeed, BREAK_ROOM_0_Z1_COOLINGCOILDX, 2250.9, 39.98, 136.43, 54.18, 52.72, 37.2
 Component Sizing Information, Coil:Heating:Electric, BREAK_ROOM_0_Z1_HEATINGCOIL, User-Specified Nominal Capacity [W], 1873.44379
 Component Sizing Information, Fan:VariableVolume, BREAK_ROOM_0_Z1_SUPPLYFAN, User-Specified Maximum Flow Rate [m3/s], 0.11709
 Component Sizing Information, Fan:VariableVolume, BREAK_ROOM_0_Z1_SUPPLYFAN, Design Electric Power Consumption [W], 100.36306
 Component Sizing Information, Coil:Cooling:DX:SingleSpeed, MECHANICAL_0_Z2_COOLINGCOILDX, User-Specified Rated Air Flow Rate [m3/s], 0.18801
 Component Sizing Information, Coil:Cooling:DX:SingleSpeed, MECHANICAL_0_Z2_COOLINGCOILDX, User-Specified Gross Rated Total Cooling Capacity [W], 3760.17293
 Component Sizing Information, Coil:Cooling:DX:SingleSpeed, MECHANICAL_0_Z2_COOLINGCOILDX, User-Specified Gross Rated Sensible Heat Ratio, 0.75000
 DX Cooling Coil Standard Rating Information, Coil:Cooling:DX:SingleSpeed, MECHANICAL_0_Z2_COOLINGCOILDX, 3614.2, 39.98, 136.43, 54.18, 51.26, 37.2
 DX Cooling Coil AHRI 2023 Standard Rating Information, Coil:Cooling:DX:SingleSpeed, MECHANICAL_0_Z2_COOLINGCOILDX, 3614.2, 39.98, 136.43, 54.18, 52.72, 37.2
 Component Sizing Information, Coil:Heating:Electric, MECHANICAL_0_Z2_HEATINGCOIL, User-Specified Nominal Capacity [W], 3008.13835
 Component Sizing Information, Fan:VariableVolume, MECHANICAL_0_Z2_SUPPLYFAN, User-Specified Maximum Flow Rate [m3/s], 0.18801
 Component Sizing Information, Fan:VariableVolume, MECHANICAL_0_Z2_SUPPLYFAN, Design Electric Power Consumption [W], 161.15027
 Component Sizing Information, Coil:Cooling:DX:SingleSpeed, STORAGE_0_Z3_COOLINGCOILDX, User-Specified Rated Air Flow Rate [m3/s], 0.18908
 Component Sizing Information, Coil:Cooling:DX:SingleSpeed, STORAGE_0_Z3_COOLINGCOILDX, User-Specified Gross Rated Total Cooling Capacity [W], 3781.53898
 Component Sizing Information, Coil:Cooling:DX:SingleSpeed, STORAGE_0_Z3_COOLINGCOILDX, User-Specified Gross Rated Sensible Heat Ratio, 0.75000
 DX Cooling Coil Standard Rating Information, Coil:Cooling:DX:SingleSpeed, STORAGE_0_Z3_COOLINGCOILDX, 3634.7, 39.98, 136.43, 54.18, 51.26, 37.2
 DX Cooling Coil AHRI 2023 Standard Rating Information, Coil:Cooling:DX:SingleSpeed, STORAGE_0_Z3_COOLINGCOILDX, 3634.7, 39.98, 136.43, 54.18, 52.72, 37.2
 Component Sizing Information, Coil:Heating:Electric, STORAGE_0_Z3_HEATINGCOIL, User-Specified Nominal Capacity [W], 3025.23119
 Component Sizing Information, Fan:VariableVolume, STORAGE_0_Z3_SUPPLYFAN, User-Specified Maximum Flow Rate [m3/s], 0.18908
 Component Sizing Information, Fan:VariableVolume, STORAGE_0_Z3_SUPPLYFAN, Design Electric Power Consumption [W], 162.06596
 Component Sizing Information, Coil:Cooling:DX:SingleSpeed, BREAK_ROOM_1_Z4_COOLINGCOILDX, User-Specified Rated Air Flow Rate [m3/s], 0.11849
 Component Sizing Information, Coil:Cooling:DX:SingleSpeed, BREAK_ROOM_1_Z4_COOLINGCOILDX, User-Specified Gross Rated Total Cooling Capacity [W], 2369.85669
 Component Sizing Information, Coil:Cooling:DX:SingleSpeed, BREAK_ROOM_1_Z4_COOLINGCOILDX, User-Specified Gross Rated Sensible Heat Ratio, 0.75000
 DX Cooling Coil Standard Rating Information, Coil:Cooling:DX:SingleSpeed, BREAK_ROOM_1_Z4_COOLINGCOILDX, 2277.8, 39.98, 136.43, 54.18, 51.26, 37.2
 DX Cooling Coil AHRI 2023 Standard Rating Information, Coil:Cooling:DX:SingleSpeed, BREAK_ROOM_1_Z4_COOLINGCOILDX, 2277.8, 39.98, 136.43, 54.18, 52.72, 37.2
 Component Sizing Information, Coil:Heating:Electric, BREAK_ROOM_1_Z4_HEATINGCOIL, User-Specified Nominal Capacity [W], 1895.88535
 Component Sizing Information, Fan:VariableVolume, BREAK_ROOM_1_Z4_SUPPLYFAN, User-Specified Maximum Flow Rate [m3/s], 0.11849
 Component Sizing Information, Fan:VariableVolume, BREAK_ROOM_1_Z4_SUPPLYFAN, Design Electric Power Consumption [W], 101.56529
 Component Sizing Information, Coil:Cooling:DX:SingleSpeed, STORAGE_1_Z5_COOLINGCOILDX, User-Specified Rated Air Flow Rate [m3/s], 6.85121E-002
 Component Sizing Information, Coil:Cooling:DX:SingleSpeed, STORAGE_1_Z5_COOLINGCOILDX, User-Specified Gross Rated Total Cooling Capacity [W], 1370.24195
 Component Sizing Information, Coil:Cooling:DX:SingleSpeed, STORAGE_1_Z5_COOLINGCOILDX, User-Specified Gross Rated Sensible Heat Ratio, 0.75000
 DX Cooling Coil Standard Rating Information, Coil:Cooling:DX:SingleSpeed, STORAGE_1_Z5_COOLINGCOILDX, 1317.0, 39.98, 136.43, 54.18, 51.26, 37.2
 DX Cooling Coil AHRI 2023 Standard Rating Information, Coil:Cooling:DX:SingleSpeed, STORAGE_1_Z5_COOLINGCOILDX, 1317.0, 39.98, 136.43, 54.18, 52.72, 37.2
 Component Sizing Information, Coil:Heating:Electric, STORAGE_1_Z5_HEATINGCOIL, User-Specified Nominal Capacity [W], 1096.19356
 Component Sizing Information, Fan:VariableVolume, STORAGE_1_Z5_SUPPLYFAN, User-Specified Maximum Flow Rate [m3/s], 6.85121E-002
 Component Sizing Information, Fan:VariableVolume, STORAGE_1_Z5_SUPPLYFAN, Design Electric Power Consumption [W], 58.72466
 Component Sizing Information, Coil:Cooling:DX:SingleSpeed, LOBBY_2_Z6_COOLINGCOILDX, User-Specified Rated Air Flow Rate [m3/s], 0.28785
 Component Sizing Information, Coil:Cooling:DX:SingleSpeed, LOBBY_2_Z6_COOLINGCOILDX, User-Specified Gross Rated Total Cooling Capacity [W], 5756.91234
 Component Sizing Information, Coil:Cooling:DX:SingleSpeed, LOBBY_2_Z6_COOLINGCOILDX, User-Specified Gross Rated Sensible Heat Ratio, 0.75000
 DX Cooling Coil Standard Rating Information, Coil:Cooling:DX:SingleSpeed, LOBBY_2_Z6_COOLINGCOILDX, 5533.4, 39.98, 136.43, 54.18, 51.26, 37.2
 DX Cooling Coil AHRI 2023 Standard Rating Information, Coil:Cooling:DX:SingleSpeed, LOBBY_2_Z6_COOLINGCOILDX, 5533.4, 39.98, 136.43, 54.18, 52.72, 37.2
 Component Sizing Information, Coil:Heating:Electric, LOBBY_2_Z6_HEATINGCOIL, User-Specified Nominal Capacity [W], 4605.52987
 Component Sizing Information, Fan:VariableVolume, LOBBY_2_Z6_SUPPLYFAN, User-Specified Maximum Flow Rate [m3/s], 0.28785
 Component Sizing Information, Fan:VariableVolume, LOBBY_2_Z6_SUPPLYFAN, Design Electric Power Consumption [W], 246.72481
 Component Sizing Information, Coil:Cooling:DX:SingleSpeed, STORAGE_2_Z7_COOLINGCOILDX, User-Specified Rated Air Flow Rate [m3/s], 8.59725E-002
 Component Sizing Information, Coil:Cooling:DX:SingleSpeed, STORAGE_2_Z7_COOLINGCOILDX, User-Specified Gross Rated Total Cooling Capacity [W], 1719.45008
 Component Sizing Information, Coil:Cooling:DX:SingleSpeed, STORAGE_2_Z7_COOLINGCOILDX, User-Specified Gross Rated Sensible Heat Ratio, 0.75000
 DX Cooling Coil Standard Rating Information, Coil:Cooling:DX:SingleSpeed, STORAGE_2_Z7_COOLINGCOILDX, 1652.7, 39.98, 136.43, 54.18, 51.26, 37.2
 DX Cooling Coil AHRI 2023 Standard Rating Information, Coil:Cooling:DX:SingleSpeed, STORAGE_2_Z7_COOLINGCOILDX, 1652.7, 39.98, 136.43, 54.18, 52.72, 37.2
 Component Sizing Information, Coil:Heating:Electric, STORAGE_2_Z7_HEATINGCOIL, User-Specified Nominal Capacity [W], 1375.56007
 Component Sizing Information, Fan:VariableVolume, STORAGE_2_Z7_SUPPLYFAN, User-Specified Maximum Flow Rate [m3/s], 8.59725E-002
 Component Sizing Information, Fan:VariableVolume, STORAGE_2_Z7_SUPPLYFAN, Design Electric Power Consumption [W], 73.69072
 Component Sizing Information, Coil:Cooling:DX:SingleSpeed, OFFICE_PRIVATE_3_Z8_COOLINGCOILDX, User-Specified Rated Air Flow Rate [m3/s], 0.14309
 Component Sizing Information, Coil:Cooling:DX:SingleSpeed, OFFICE_PRIVATE_3_Z8_COOLINGCOILDX, User-Specified Gross Rated Total Cooling Capacity [W], 2861.77941
 Component Sizing Information, Coil:Cooling:DX:SingleSpeed, OFFICE_PRIVATE_3_Z8_COOLINGCOILDX, User-Specified Gross Rated Sensible Heat Ratio, 0.75000
 DX Cooling Coil Standard Rating Information, Coil:Cooling:DX:SingleSpeed, OFFICE_PRIVATE_3_Z8_COOLINGCOILDX, 2750.7, 39.98, 136.43, 54.18, 51.26, 37.2
 DX Cooling Coil AHRI 2023 Standard Rating Information, Coil:Cooling:DX:SingleSpeed, OFFICE_PRIVATE_3_Z8_COOLINGCOILDX, 2750.7, 39.98, 136.43, 54.18, 52.72, 37.2
 Component Sizing Information, Coil:Heating:Electric, OFFICE_PRIVATE_3_Z8_HEATINGCOIL, User-Specified Nominal Capacity [W], 2289.42352
 Component Sizing Information, Fan:VariableVolume, OFFICE_PRIVATE_3_Z8_SUPPLYFAN, User-Specified Maximum Flow Rate [m3/s], 0.14309
 Component Sizing Information, Fan:VariableVolume, OFFICE_PRIVATE_3_Z8_SUPPLYFAN, Design Electric Power Consumption [W], 122.64769
 Component Sizing Information, Coil:Cooling:DX:SingleSpeed, CONFERENCE_4_Z9_COOLINGCOILDX, User-Specified Rated Air Flow Rate [m3/s], 0.17346
 Component Sizing Information, Coil:Cooling:DX:SingleSpeed, CONFERENCE_4_Z9_COOLINGCOILDX, User-Specified Gross Rated Total Cooling Capacity [W], 3469.12657
 Component Sizing Information, Coil:Cooling:DX:SingleSpeed, CONFERENCE_4_Z9_COOLINGCOILDX, User-Specified Gross Rated Sensible Heat Ratio, 0.75000
 DX Cooling Coil Standard Rating Information, Coil:Cooling:DX:SingleSpeed, CONFERENCE_4_Z9_COOLINGCOILDX, 3334.4, 39.98, 136.43, 54.18, 51.26, 37.2
 DX Cooling Coil AHRI 2023 Standard Rating Information, Coil:Cooling:DX:SingleSpeed, CONFERENCE_4_Z9_COOLINGCOILDX, 3334.4, 39.98, 136.43, 54.18, 52.72, 37.2
 Component Sizing Information, Coil:Heating:Electric, CONFERENCE_4_Z9_HEATINGCOIL, User-Specified Nominal Capacity [W], 2775.30126
 Component Sizing Information, Fan:VariableVolume, CONFERENCE_4_Z9_SUPPLYFAN, User-Specified Maximum Flow Rate [m3/s], 0.17346
 Component Sizing Information, Fan:VariableVolume, CONFERENCE_4_Z9_SUPPLYFAN, Design Electric Power Consumption [W], 148.67685
 Component Sizing Information, Coil:Cooling:DX:SingleSpeed, BREAK_ROOM_4_Z10_COOLINGCOILDX, User-Specified Rated Air Flow Rate [m3/s], 0.12670
 Component Sizing Information, Coil:Cooling:DX:SingleSpeed, BREAK_ROOM_4_Z10_COOLINGCOILDX, User-Specified Gross Rated Total Cooling Capacity [W], 2533.94908
 Component Sizing Information, Coil:Cooling:DX:SingleSpeed, BREAK_ROOM_4_Z10_COOLINGCOILDX, User-Specified Gross Rated Sensible Heat Ratio, 0.75000
 DX Cooling Coil Standard Rating Information, Coil:Cooling:DX:SingleSpeed, BREAK_ROOM_4_Z10_COOLINGCOILDX, 2435.6, 39.98, 136.43, 54.18, 51.26, 37.2
 DX Cooling Coil AHRI 2023 Standard Rating Information, Coil:Cooling:DX:SingleSpeed, BREAK_ROOM_4_Z10_COOLINGCOILDX, 2435.6, 39.98, 136.43, 54.18, 52.72, 37.2
 Component Sizing Information, Coil:Heating:Electric, BREAK_ROOM_4_Z10_HEATINGCOIL, User-Specified Nominal Capacity [W], 2027.15926
 Component Sizing Information, Fan:VariableVolume, BREAK_ROOM_4_Z10_SUPPLYFAN, User-Specified Maximum Flow Rate [m3/s], 0.12670
 Component Sizing Information, Fan:VariableVolume, BREAK_ROOM_4_Z10_SUPPLYFAN, Design Electric Power Consumption [W], 108.59782
 Component Sizing Information, Coil:Cooling:DX:SingleSpeed, OFFICE_PRIVATE_4_Z11_COOLINGCOILDX, User-Specified Rated Air Flow Rate [m3/s], 0.19735
 Component Sizing Information, Coil:Cooling:DX:SingleSpeed, OFFICE_PRIVATE_4_Z11_COOLINGCOILDX, User-Specified Gross Rated Total Cooling Capacity [W], 3947.00021
 Component Sizing Information, Coil:Cooling:DX:SingleSpeed, OFFICE_PRIVATE_4_Z11_COOLINGCOILDX, User-Specified Gross Rated Sensible Heat Ratio, 0.75000
 DX Cooling Coil Standard Rating Information, Coil:Cooling:DX:SingleSpeed, OFFICE_PRIVATE_4_Z11_COOLINGCOILDX, 3793.8, 39.98, 136.43, 54.18, 51.26, 37.2
 DX Cooling Coil AHRI 2023 Standard Rating Information, Coil:Cooling:DX:SingleSpeed, OFFICE_PRIVATE_4_Z11_COOLINGCOILDX, 3793.8, 39.98, 136.43, 54.18, 52.72, 37.2
 Component Sizing Information, Coil:Heating:Electric, OFFICE_PRIVATE_4_Z11_HEATINGCOIL, User-Specified Nominal Capacity [W], 3157.60016
 Component Sizing Information, Fan:VariableVolume, OFFICE_PRIVATE_4_Z11_SUPPLYFAN, User-Specified Maximum Flow Rate [m3/s], 0.19735
 Component Sizing Information, Fan:VariableVolume, OFFICE_PRIVATE_4_Z11_SUPPLYFAN, Design Electric Power Consumption [W], 169.15715
 Component Sizing Information, Coil:Cooling:DX:SingleSpeed, STORAGE_4_Z12_COOLINGCOILDX, User-Specified Rated Air Flow Rate [m3/s], 0.18992
 Component Sizing Information, Coil:Cooling:DX:SingleSpeed, STORAGE_4_Z12_COOLINGCOILDX, User-Specified Gross Rated Total Cooling Capacity [W], 3798.48875
 Component Sizing Information, Coil:Cooling:DX:SingleSpeed, STORAGE_4_Z12_COOLINGCOILDX, User-Specified Gross Rated Sensible Heat Ratio, 0.75000
 DX Cooling Coil Standard Rating Information, Coil:Cooling:DX:SingleSpeed, STORAGE_4_Z12_COOLINGCOILDX, 3651.0, 39.98, 136.43, 54.18, 51.26, 37.2
 DX Cooling Coil AHRI 2023 Standard Rating Information, Coil:Cooling:DX:SingleSpeed, STORAGE_4_Z12_COOLINGCOILDX, 3651.0, 39.98, 136.43, 54.18, 52.72, 37.2
 Component Sizing Information, Coil:Heating:Electric, STORAGE_4_Z12_HEATINGCOIL, User-Specified Nominal Capacity [W], 3038.79100
 Component Sizing Information, Fan:VariableVolume, STORAGE_4_Z12_SUPPLYFAN, User-Specified Maximum Flow Rate [m3/s], 0.18992
 Component Sizing Information, Fan:VariableVolume, STORAGE_4_Z12_SUPPLYFAN, Design Electric Power Consumption [W], 162.79237
! <Environment>,Environment Name,Environment Type, Start Date, End Date, Start DayOfWeek, Duration {#days}, Source:Start DayOfWeek,  Use Daylight Saving, Use Holidays, Apply Weekend Holiday Rule,  Use Rain Values, Use Snow Values, Sky Temperature Model
! <Environment:Special Days>, Special Day Name, Special Day Type, Source, Start Date, Duration {#days}
! <Environment:Daylight Saving>, Daylight Saving Indicator, Source, Start Date, End Date
! <Environment:WarmupDays>, NumberofWarmupDays
Environment,YEAR ROUND RUN PERIOD,WeatherFileRunPeriod,01/01/2017,12/31/2017,Sunday,365,Use RunPeriod Specified Day,Yes,Yes,Yes,Yes,Yes,Clark and Allen
Environment:Daylight Saving,No,
! <Sky Daylight Factors>, Sky Type, MonthAndDay, Daylighting Control Name, Enclosure Name, Window Name, Reference Point, Daylight Factor
 Sky Daylight Factors,Clear Sky,01/01,BREAK_ROOM_0_DAYLIGHT,BREAK_ROOM_0,BREAK_ROOM_0_WINDOW_1,BREAK_ROOM_0_REFERENCEPOINT1,5.5635E-003
 Sky Daylight Factors,Clear Turbid Sky,01/01,BREAK_ROOM_0_DAYLIGHT,BREAK_ROOM_0,BREAK_ROOM_0_WINDOW_1,BREAK_ROOM_0_REFERENCEPOINT1,6.1896E-003
 Sky Daylight Factors,Intermediate Sky,01/01,BREAK_ROOM_0_DAYLIGHT,BREAK_ROOM_0,BREAK_ROOM_0_WINDOW_1,BREAK_ROOM_0_REFERENCEPOINT1,4.1260E-003
 Sky Daylight Factors,Overcast Sky,01/01,BREAK_ROOM_0_DAYLIGHT,BREAK_ROOM_0,BREAK_ROOM_0_WINDOW_1,BREAK_ROOM_0_REFERENCEPOINT1,2.2396E-003
 Sky Daylight Factors,Clear Sky,01/01,BREAK_ROOM_0_DAYLIGHT,BREAK_ROOM_0,BREAK_ROOM_0_WINDOW_2,BREAK_ROOM_0_REFERENCEPOINT1,7.8488E-003
 Sky Daylight Factors,Clear Turbid Sky,01/01,BREAK_ROOM_0_DAYLIGHT,BREAK_ROOM_0,BREAK_ROOM_0_WINDOW_2,BREAK_ROOM_0_REFERENCEPOINT1,7.1898E-003
 Sky Daylight Factors,Intermediate Sky,01/01,BREAK_ROOM_0_DAYLIGHT,BREAK_ROOM_0,BREAK_ROOM_0_WINDOW_2,BREAK_ROOM_0_REFERENCEPOINT1,7.6095E-003
 Sky Daylight Factors,Overcast Sky,01/01,BREAK_ROOM_0_DAYLIGHT,BREAK_ROOM_0,BREAK_ROOM_0_WINDOW_2,BREAK_ROOM_0_REFERENCEPOINT1,6.8050E-003
 Sky Daylight Factors,Clear Sky,01/01,BREAK_ROOM_0_DAYLIGHT,BREAK_ROOM_0,BREAK_ROOM_0_WINDOW_3,BREAK_ROOM_0_REFERENCEPOINT1,5.3114E-003
 Sky Daylight Factors,Clear Turbid Sky,01/01,BREAK_ROOM_0_DAYLIGHT,BREAK_ROOM_0,BREAK_ROOM_0_WINDOW_3,BREAK_ROOM_0_REFERENCEPOINT1,4.2985E-003
 Sky Daylight Factors,Intermediate Sky,01/01,BREAK_ROOM_0_DAYLIGHT,BREAK_ROOM_0,BREAK_ROOM_0_WINDOW_3,BREAK_ROOM_0_REFERENCEPOINT1,3.8422E-003
 Sky Daylight Factors,Overcast Sky,01/01,BREAK_ROOM_0_DAYLIGHT,BREAK_ROOM_0,BREAK_ROOM_0_WINDOW_3,BREAK_ROOM_0_REFERENCEPOINT1,5.3619E-003
 Sky Daylight Factors,Clear Sky,01/01,BREAK_ROOM_0_DAYLIGHT,BREAK_ROOM_0,BREAK_ROOM_0_WINDOW_4,BREAK_ROOM_0_REFERENCEPOINT1,7.9193E-003
 Sky Daylight Factors,Clear Turbid Sky,01/01,BREAK_ROOM_0_DAYLIGHT,BREAK_ROOM_0,BREAK_ROOM_0_WINDOW_4,BREAK_ROOM_0_REFERENCEPOINT1,7.3834E-003
 Sky Daylight Factors,Intermediate Sky,01/01,BREAK_ROOM_0_DAYLIGHT,BREAK_ROOM_0,BREAK_ROOM_0_WINDOW_4,BREAK_ROOM_0_REFERENCEPOINT1,7.3393E-003
 Sky Daylight Factors,Overcast Sky,01/01,BREAK_ROOM_0_DAYLIGHT,BREAK_ROOM_0,BREAK_ROOM_0_WINDOW_4,BREAK_ROOM_0_REFERENCEPOINT1,6.4109E-003
 Sky Daylight Factors,Clear Sky,01/01,BREAK_ROOM_1_DAYLIGHT,BREAK_ROOM_1,BREAK_ROOM_1_WINDOW_1,BREAK_ROOM_1_REFERENCEPOINT1,7.5269E-003
 Sky Daylight Factors,Clear Turbid Sky,01/01,BREAK_ROOM_1_DAYLIGHT,BREAK_ROOM_1,BREAK_ROOM_1_WINDOW_1,BREAK_ROOM_1_REFERENCEPOINT1,8.3782E-003
 Sky Daylight Factors,Intermediate Sky,01/01,BREAK_ROOM_1_DAYLIGHT,BREAK_ROOM_1,BREAK_ROOM_1_WINDOW_1,BREAK_ROOM_1_REFERENCEPOINT1,5.3551E-003
 Sky Daylight Factors,Overcast Sky,01/01,BREAK_ROOM_1_DAYLIGHT,BREAK_ROOM_1,BREAK_ROOM_1_WINDOW_1,BREAK_ROOM_1_REFERENCEPOINT1,2.8043E-003
 Sky Daylight Factors,Clear Sky,01/01,BREAK_ROOM_1_DAYLIGHT,BREAK_ROOM_1,BREAK_ROOM_1_WINDOW_2,BREAK_ROOM_1_REFERENCEPOINT1,7.6995E-003
 Sky Daylight Factors,Clear Turbid Sky,01/01,BREAK_ROOM_1_DAYLIGHT,BREAK_ROOM_1,BREAK_ROOM_1_WINDOW_2,BREAK_ROOM_1_REFERENCEPOINT1,7.3085E-003
 Sky Daylight Factors,Intermediate Sky,01/01,BREAK_ROOM_1_DAYLIGHT,BREAK_ROOM_1,BREAK_ROOM_1_WINDOW_2,BREAK_ROOM_1_REFERENCEPOINT1,7.2457E-003
 Sky Daylight Factors,Overcast Sky,01/01,BREAK_ROOM_1_DAYLIGHT,BREAK_ROOM_1,BREAK_ROOM_1_WINDOW_2,BREAK_ROOM_1_REFERENCEPOINT1,5.7958E-003
 Sky Daylight Factors,Clear Sky,01/01,BREAK_ROOM_1_DAYLIGHT,BREAK_ROOM_1,BREAK_ROOM_1_WINDOW_3,BREAK_ROOM_1_REFERENCEPOINT1,5.1187E-003
 Sky Daylight Factors,Clear Turbid Sky,01/01,BREAK_ROOM_1_DAYLIGHT,BREAK_ROOM_1,BREAK_ROOM_1_WINDOW_3,BREAK_ROOM_1_REFERENCEPOINT1,4.1787E-003
 Sky Daylight Factors,Intermediate Sky,01/01,BREAK_ROOM_1_DAYLIGHT,BREAK_ROOM_1,BREAK_ROOM_1_WINDOW_3,BREAK_ROOM_1_REFERENCEPOINT1,3.7645E-003
 Sky Daylight Factors,Overcast Sky,01/01,BREAK_ROOM_1_DAYLIGHT,BREAK_ROOM_1,BREAK_ROOM_1_WINDOW_3,BREAK_ROOM_1_REFERENCEPOINT1,5.2408E-003
 Sky Daylight Factors,Clear Sky,01/01,BREAK_ROOM_1_DAYLIGHT,BREAK_ROOM_1,BREAK_ROOM_1_WINDOW_4,BREAK_ROOM_1_REFERENCEPOINT1,6.7666E-003
 Sky Daylight Factors,Clear Turbid Sky,01/01,BREAK_ROOM_1_DAYLIGHT,BREAK_ROOM_1,BREAK_ROOM_1_WINDOW_4,BREAK_ROOM_1_REFERENCEPOINT1,6.5140E-003
 Sky Daylight Factors,Intermediate Sky,01/01,BREAK_ROOM_1_DAYLIGHT,BREAK_ROOM_1,BREAK_ROOM_1_WINDOW_4,BREAK_ROOM_1_REFERENCEPOINT1,6.2176E-003
 Sky Daylight Factors,Overcast Sky,01/01,BREAK_ROOM_1_DAYLIGHT,BREAK_ROOM_1,BREAK_ROOM_1_WINDOW_4,BREAK_ROOM_1_REFERENCEPOINT1,5.5586E-003
 Sky Daylight Factors,Clear Sky,01/01,LOBBY_2_DAYLIGHT,LOBBY_2,LOBBY_2_WINDOW_1,LOBBY_2_REFERENCEPOINT1,6.3624E-003
 Sky Daylight Factors,Clear Turbid Sky,01/01,LOBBY_2_DAYLIGHT,LOBBY_2,LOBBY_2_WINDOW_1,LOBBY_2_REFERENCEPOINT1,7.1123E-003
 Sky Daylight Factors,Intermediate Sky,01/01,LOBBY_2_DAYLIGHT,LOBBY_2,LOBBY_2_WINDOW_1,LOBBY_2_REFERENCEPOINT1,4.4318E-003
 Sky Daylight Factors,Overcast Sky,01/01,LOBBY_2_DAYLIGHT,LOBBY_2,LOBBY_2_WINDOW_1,LOBBY_2_REFERENCEPOINT1,2.2332E-003
 Sky Daylight Factors,Clear Sky,01/01,LOBBY_2_DAYLIGHT,LOBBY_2,LOBBY_2_WINDOW_2,LOBBY_2_REFERENCEPOINT1,6.0189E-003
 Sky Daylight Factors,Clear Turbid Sky,01/01,LOBBY_2_DAYLIGHT,LOBBY_2,LOBBY_2_WINDOW_2,LOBBY_2_REFERENCEPOINT1,5.7069E-003
 Sky Daylight Factors,Intermediate Sky,01/01,LOBBY_2_DAYLIGHT,LOBBY_2,LOBBY_2_WINDOW_2,LOBBY_2_REFERENCEPOINT1,5.5510E-003
 Sky Daylight Factors,Overcast Sky,01/01,LOBBY_2_DAYLIGHT,LOBBY_2,LOBBY_2_WINDOW_2,LOBBY_2_REFERENCEPOINT1,4.4086E-003
 Sky Daylight Factors,Clear Sky,01/01,LOBBY_2_DAYLIGHT,LOBBY_2,LOBBY_2_WINDOW_3,LOBBY_2_REFERENCEPOINT1,3.8904E-003
 Sky Daylight Factors,Clear Turbid Sky,01/01,LOBBY_2_DAYLIGHT,LOBBY_2,LOBBY_2_WINDOW_3,LOBBY_2_REFERENCEPOINT1,3.1818E-003
 Sky Daylight Factors,Intermediate Sky,01/01,LOBBY_2_DAYLIGHT,LOBBY_2,LOBBY_2_WINDOW_3,LOBBY_2_REFERENCEPOINT1,2.7572E-003
 Sky Daylight Factors,Overcast Sky,01/01,LOBBY_2_DAYLIGHT,LOBBY_2,LOBBY_2_WINDOW_3,LOBBY_2_REFERENCEPOINT1,3.7252E-003
 Sky Daylight Factors,Clear Sky,01/01,LOBBY_2_DAYLIGHT,LOBBY_2,LOBBY_2_WINDOW_4,LOBBY_2_REFERENCEPOINT1,6.3784E-003
 Sky Daylight Factors,Clear Turbid Sky,01/01,LOBBY_2_DAYLIGHT,LOBBY_2,LOBBY_2_WINDOW_4,LOBBY_2_REFERENCEPOINT1,5.9852E-003
 Sky Daylight Factors,Intermediate Sky,01/01,LOBBY_2_DAYLIGHT,LOBBY_2,LOBBY_2_WINDOW_4,LOBBY_2_REFERENCEPOINT1,6.0734E-003
 Sky Daylight Factors,Overcast Sky,01/01,LOBBY_2_DAYLIGHT,LOBBY_2,LOBBY_2_WINDOW_4,LOBBY_2_REFERENCEPOINT1,5.2649E-003
 Sky Daylight Factors,Clear Sky,01/01,OFFICE_PRIVATE_3_DAYLIGHT,OFFICE_PRIVATE_3,OFFICE_PRIVATE_3_WINDOW_1,OFFICE_PRIVATE_3_REFERENCEPOINT1,9.4070E-003
 Sky Daylight Factors,Clear Turbid Sky,01/01,OFFICE_PRIVATE_3_DAYLIGHT,OFFICE_PRIVATE_3,OFFICE_PRIVATE_3_WINDOW_1,OFFICE_PRIVATE_3_REFERENCEPOINT1,1.0474E-002
 Sky Daylight Factors,Intermediate Sky,01/01,OFFICE_PRIVATE_3_DAYLIGHT,OFFICE_PRIVATE_3,OFFICE_PRIVATE_3_WINDOW_1,OFFICE_PRIVATE_3_REFERENCEPOINT1,6.6844E-003
 Sky Daylight Factors,Overcast Sky,01/01,OFFICE_PRIVATE_3_DAYLIGHT,OFFICE_PRIVATE_3,OFFICE_PRIVATE_3_WINDOW_1,OFFICE_PRIVATE_3_REFERENCEPOINT1,3.4859E-003
 Sky Daylight Factors,Clear Sky,01/01,OFFICE_PRIVATE_3_DAYLIGHT,OFFICE_PRIVATE_3,OFFICE_PRIVATE_3_WINDOW_2,OFFICE_PRIVATE_3_REFERENCEPOINT1,6.2955E-003
 Sky Daylight Factors,Clear Turbid Sky,01/01,OFFICE_PRIVATE_3_DAYLIGHT,OFFICE_PRIVATE_3,OFFICE_PRIVATE_3_WINDOW_2,OFFICE_PRIVATE_3_REFERENCEPOINT1,5.8962E-003
 Sky Daylight Factors,Intermediate Sky,01/01,OFFICE_PRIVATE_3_DAYLIGHT,OFFICE_PRIVATE_3,OFFICE_PRIVATE_3_WINDOW_2,OFFICE_PRIVATE_3_REFERENCEPOINT1,5.9687E-003
 Sky Daylight Factors,Overcast Sky,01/01,OFFICE_PRIVATE_3_DAYLIGHT,OFFICE_PRIVATE_3,OFFICE_PRIVATE_3_WINDOW_2,OFFICE_PRIVATE_3_REFERENCEPOINT1,5.2312E-003
 Sky Daylight Factors,Clear Sky,01/01,OFFICE_PRIVATE_3_DAYLIGHT,OFFICE_PRIVATE_3,OFFICE_PRIVATE_3_WINDOW_3,OFFICE_PRIVATE_3_REFERENCEPOINT1,6.7530E-003
 Sky Daylight Factors,Clear Turbid Sky,01/01,OFFICE_PRIVATE_3_DAYLIGHT,OFFICE_PRIVATE_3,OFFICE_PRIVATE_3_WINDOW_3,OFFICE_PRIVATE_3_REFERENCEPOINT1,5.5007E-003
 Sky Daylight Factors,Intermediate Sky,01/01,OFFICE_PRIVATE_3_DAYLIGHT,OFFICE_PRIVATE_3,OFFICE_PRIVATE_3_WINDOW_3,OFFICE_PRIVATE_3_REFERENCEPOINT1,4.9366E-003
 Sky Daylight Factors,Overcast Sky,01/01,OFFICE_PRIVATE_3_DAYLIGHT,OFFICE_PRIVATE_3,OFFICE_PRIVATE_3_WINDOW_3,OFFICE_PRIVATE_3_REFERENCEPOINT1,6.8155E-003
 Sky Daylight Factors,Clear Sky,01/01,OFFICE_PRIVATE_3_DAYLIGHT,OFFICE_PRIVATE_3,OFFICE_PRIVATE_3_WINDOW_4,OFFICE_PRIVATE_3_REFERENCEPOINT1,6.7333E-003
 Sky Daylight Factors,Clear Turbid Sky,01/01,OFFICE_PRIVATE_3_DAYLIGHT,OFFICE_PRIVATE_3,OFFICE_PRIVATE_3_WINDOW_4,OFFICE_PRIVATE_3_REFERENCEPOINT1,6.3209E-003
 Sky Daylight Factors,Intermediate Sky,01/01,OFFICE_PRIVATE_3_DAYLIGHT,OFFICE_PRIVATE_3,OFFICE_PRIVATE_3_WINDOW_4,OFFICE_PRIVATE_3_REFERENCEPOINT1,6.3472E-003
 Sky Daylight Factors,Overcast Sky,01/01,OFFICE_PRIVATE_3_DAYLIGHT,OFFICE_PRIVATE_3,OFFICE_PRIVATE_3_WINDOW_4,OFFICE_PRIVATE_3_REFERENCEPOINT1,5.4609E-003
 Sky Daylight Factors,Clear Sky,01/01,CONFERENCE_4_DAYLIGHT,CONFERENCE_4,CONFERENCE_4_WINDOW_1,CONFERENCE_4_REFERENCEPOINT1,7.1720E-003
 Sky Daylight Factors,Clear Turbid Sky,01/01,CONFERENCE_4_DAYLIGHT,CONFERENCE_4,CONFERENCE_4_WINDOW_1,CONFERENCE_4_REFERENCEPOINT1,7.9867E-003
 Sky Daylight Factors,Intermediate Sky,01/01,CONFERENCE_4_DAYLIGHT,CONFERENCE_4,CONFERENCE_4_WINDOW_1,CONFERENCE_4_REFERENCEPOINT1,5.0934E-003
 Sky Daylight Factors,Overcast Sky,01/01,CONFERENCE_4_DAYLIGHT,CONFERENCE_4,CONFERENCE_4_WINDOW_1,CONFERENCE_4_REFERENCEPOINT1,2.6515E-003
 Sky Daylight Factors,Clear Sky,01/01,CONFERENCE_4_DAYLIGHT,CONFERENCE_4,CONFERENCE_4_WINDOW_2,CONFERENCE_4_REFERENCEPOINT1,7.8236E-003
 Sky Daylight Factors,Clear Turbid Sky,01/01,CONFERENCE_4_DAYLIGHT,CONFERENCE_4,CONFERENCE_4_WINDOW_2,CONFERENCE_4_REFERENCEPOINT1,7.3301E-003
 Sky Daylight Factors,Intermediate Sky,01/01,CONFERENCE_4_DAYLIGHT,CONFERENCE_4,CONFERENCE_4_WINDOW_2,CONFERENCE_4_REFERENCEPOINT1,7.3827E-003
 Sky Daylight Factors,Overcast Sky,01/01,CONFERENCE_4_DAYLIGHT,CONFERENCE_4,CONFERENCE_4_WINDOW_2,CONFERENCE_4_REFERENCEPOINT1,6.3790E-003
 Sky Daylight Factors,Clear Sky,01/01,CONFERENCE_4_DAYLIGHT,CONFERENCE_4,CONFERENCE_4_WINDOW_3,CONFERENCE_4_REFERENCEPOINT1,3.8450E-003
 Sky Daylight Factors,Clear Turbid Sky,01/01,CONFERENCE_4_DAYLIGHT,CONFERENCE_4,CONFERENCE_4_WINDOW_3,CONFERENCE_4_REFERENCEPOINT1,3.1289E-003
 Sky Daylight Factors,Intermediate Sky,01/01,CONFERENCE_4_DAYLIGHT,CONFERENCE_4,CONFERENCE_4_WINDOW_3,CONFERENCE_4_REFERENCEPOINT1,2.9592E-003
 Sky Daylight Factors,Overcast Sky,01/01,CONFERENCE_4_DAYLIGHT,CONFERENCE_4,CONFERENCE_4_WINDOW_3,CONFERENCE_4_REFERENCEPOINT1,4.3119E-003
 Sky Daylight Factors,Clear Sky,01/01,CONFERENCE_4_DAYLIGHT,CONFERENCE_4,CONFERENCE_4_WINDOW_4,CONFERENCE_4_REFERENCEPOINT1,6.8494E-003
 Sky Daylight Factors,Clear Turbid Sky,01/01,CONFERENCE_4_DAYLIGHT,CONFERENCE_4,CONFERENCE_4_WINDOW_4,CONFERENCE_4_REFERENCEPOINT1,6.5007E-003
 Sky Daylight Factors,Intermediate Sky,01/01,CONFERENCE_4_DAYLIGHT,CONFERENCE_4,CONFERENCE_4_WINDOW_4,CONFERENCE_4_REFERENCEPOINT1,6.6889E-003
 Sky Daylight Factors,Overcast Sky,01/01,CONFERENCE_4_DAYLIGHT,CONFERENCE_4,CONFERENCE_4_WINDOW_4,CONFERENCE_4_REFERENCEPOINT1,5.6103E-003
 Sky Daylight Factors,Clear Sky,01/01,BREAK_ROOM_4_DAYLIGHT,BREAK_ROOM_4,BREAK_ROOM_4_WINDOW_1,BREAK_ROOM_4_REFERENCEPOINT1,7.0427E-003
 Sky Daylight Factors,Clear Turbid Sky,01/01,BREAK_ROOM_4_DAYLIGHT,BREAK_ROOM_4,BREAK_ROOM_4_WINDOW_1,BREAK_ROOM_4_REFERENCEPOINT1,7.8393E-003
 Sky Daylight Factors,Intermediate Sky,01/01,BREAK_ROOM_4_DAYLIGHT,BREAK_ROOM_4,BREAK_ROOM_4_WINDOW_1,BREAK_ROOM_4_REFERENCEPOINT1,5.0105E-003
 Sky Daylight Factors,Overcast Sky,01/01,BREAK_ROOM_4_DAYLIGHT,BREAK_ROOM_4,BREAK_ROOM_4_WINDOW_1,BREAK_ROOM_4_REFERENCEPOINT1,2.6230E-003
 Sky Daylight Factors,Clear Sky,01/01,BREAK_ROOM_4_DAYLIGHT,BREAK_ROOM_4,BREAK_ROOM_4_WINDOW_2,BREAK_ROOM_4_REFERENCEPOINT1,8.6757E-003
 Sky Daylight Factors,Clear Turbid Sky,01/01,BREAK_ROOM_4_DAYLIGHT,BREAK_ROOM_4,BREAK_ROOM_4_WINDOW_2,BREAK_ROOM_4_REFERENCEPOINT1,8.1129E-003
 Sky Daylight Factors,Intermediate Sky,01/01,BREAK_ROOM_4_DAYLIGHT,BREAK_ROOM_4,BREAK_ROOM_4_WINDOW_2,BREAK_ROOM_4_REFERENCEPOINT1,8.1729E-003
 Sky Daylight Factors,Overcast Sky,01/01,BREAK_ROOM_4_DAYLIGHT,BREAK_ROOM_4,BREAK_ROOM_4_WINDOW_2,BREAK_ROOM_4_REFERENCEPOINT1,7.0280E-003
 Sky Daylight Factors,Clear Sky,01/01,BREAK_ROOM_4_DAYLIGHT,BREAK_ROOM_4,BREAK_ROOM_4_WINDOW_3,BREAK_ROOM_4_REFERENCEPOINT1,4.9329E-003
 Sky Daylight Factors,Clear Turbid Sky,01/01,BREAK_ROOM_4_DAYLIGHT,BREAK_ROOM_4,BREAK_ROOM_4_WINDOW_3,BREAK_ROOM_4_REFERENCEPOINT1,4.0020E-003
 Sky Daylight Factors,Intermediate Sky,01/01,BREAK_ROOM_4_DAYLIGHT,BREAK_ROOM_4,BREAK_ROOM_4_WINDOW_3,BREAK_ROOM_4_REFERENCEPOINT1,3.5827E-003
 Sky Daylight Factors,Overcast Sky,01/01,BREAK_ROOM_4_DAYLIGHT,BREAK_ROOM_4,BREAK_ROOM_4_WINDOW_3,BREAK_ROOM_4_REFERENCEPOINT1,4.9793E-003
 Sky Daylight Factors,Clear Sky,01/01,BREAK_ROOM_4_DAYLIGHT,BREAK_ROOM_4,BREAK_ROOM_4_WINDOW_4,BREAK_ROOM_4_REFERENCEPOINT1,8.6933E-003
 Sky Daylight Factors,Clear Turbid Sky,01/01,BREAK_ROOM_4_DAYLIGHT,BREAK_ROOM_4,BREAK_ROOM_4_WINDOW_4,BREAK_ROOM_4_REFERENCEPOINT1,8.1433E-003
 Sky Daylight Factors,Intermediate Sky,01/01,BREAK_ROOM_4_DAYLIGHT,BREAK_ROOM_4,BREAK_ROOM_4_WINDOW_4,BREAK_ROOM_4_REFERENCEPOINT1,8.1784E-003
 Sky Daylight Factors,Overcast Sky,01/01,BREAK_ROOM_4_DAYLIGHT,BREAK_ROOM_4,BREAK_ROOM_4_WINDOW_4,BREAK_ROOM_4_REFERENCEPOINT1,6.9965E-003
 Sky Daylight Factors,Clear Sky,01/01,OFFICE_PRIVATE_4_DAYLIGHT,OFFICE_PRIVATE_4,OFFICE_PRIVATE_4_WINDOW_1,OFFICE_PRIVATE_4_REFERENCEPOINT1,5.8289E-003
 Sky Daylight Factors,Clear Turbid Sky,01/01,OFFICE_PRIVATE_4_DAYLIGHT,OFFICE_PRIVATE_4,OFFICE_PRIVATE_4_WINDOW_1,OFFICE_PRIVATE_4_REFERENCEPOINT1,6.5671E-003
 Sky Daylight Factors,Intermediate Sky,01/01,OFFICE_PRIVATE_4_DAYLIGHT,OFFICE_PRIVATE_4,OFFICE_PRIVATE_4_WINDOW_1,OFFICE_PRIVATE_4_REFERENCEPOINT1,4.0927E-003
 Sky Daylight Factors,Overcast Sky,01/01,OFFICE_PRIVATE_4_DAYLIGHT,OFFICE_PRIVATE_4,OFFICE_PRIVATE_4_WINDOW_1,OFFICE_PRIVATE_4_REFERENCEPOINT1,2.0970E-003
 Sky Daylight Factors,Clear Sky,01/01,OFFICE_PRIVATE_4_DAYLIGHT,OFFICE_PRIVATE_4,OFFICE_PRIVATE_4_WINDOW_2,OFFICE_PRIVATE_4_REFERENCEPOINT1,6.8969E-003
 Sky Daylight Factors,Clear Turbid Sky,01/01,OFFICE_PRIVATE_4_DAYLIGHT,OFFICE_PRIVATE_4,OFFICE_PRIVATE_4_WINDOW_2,OFFICE_PRIVATE_4_REFERENCEPOINT1,6.3284E-003
 Sky Daylight Factors,Intermediate Sky,01/01,OFFICE_PRIVATE_4_DAYLIGHT,OFFICE_PRIVATE_4,OFFICE_PRIVATE_4_WINDOW_2,OFFICE_PRIVATE_4_REFERENCEPOINT1,6.8481E-003
 Sky Daylight Factors,Overcast Sky,01/01,OFFICE_PRIVATE_4_DAYLIGHT,OFFICE_PRIVATE_4,OFFICE_PRIVATE_4_WINDOW_2,OFFICE_PRIVATE_4_REFERENCEPOINT1,6.1742E-003
 Sky Daylight Factors,Clear Sky,01/01,OFFICE_PRIVATE_4_DAYLIGHT,OFFICE_PRIVATE_4,OFFICE_PRIVATE_4_WINDOW_3,OFFICE_PRIVATE_4_REFERENCEPOINT1,4.7058E-003
 Sky Daylight Factors,Clear Turbid Sky,01/01,OFFICE_PRIVATE_4_DAYLIGHT,OFFICE_PRIVATE_4,OFFICE_PRIVATE_4_WINDOW_3,OFFICE_PRIVATE_4_REFERENCEPOINT1,3.8245E-003
 Sky Daylight Factors,Intermediate Sky,01/01,OFFICE_PRIVATE_4_DAYLIGHT,OFFICE_PRIVATE_4,OFFICE_PRIVATE_4_WINDOW_3,OFFICE_PRIVATE_4_REFERENCEPOINT1,3.4275E-003
 Sky Daylight Factors,Overcast Sky,01/01,OFFICE_PRIVATE_4_DAYLIGHT,OFFICE_PRIVATE_4,OFFICE_PRIVATE_4_WINDOW_3,OFFICE_PRIVATE_4_REFERENCEPOINT1,4.7498E-003
 Sky Daylight Factors,Clear Sky,01/01,OFFICE_PRIVATE_4_DAYLIGHT,OFFICE_PRIVATE_4,OFFICE_PRIVATE_4_WINDOW_4,OFFICE_PRIVATE_4_REFERENCEPOINT1,7.8235E-003
 Sky Daylight Factors,Clear Turbid Sky,01/01,OFFICE_PRIVATE_4_DAYLIGHT,OFFICE_PRIVATE_4,OFFICE_PRIVATE_4_WINDOW_4,OFFICE_PRIVATE_4_REFERENCEPOINT1,7.3377E-003
 Sky Daylight Factors,Intermediate Sky,01/01,OFFICE_PRIVATE_4_DAYLIGHT,OFFICE_PRIVATE_4,OFFICE_PRIVATE_4_WINDOW_4,OFFICE_PRIVATE_4_REFERENCEPOINT1,7.3687E-003
 Sky Daylight Factors,Overcast Sky,01/01,OFFICE_PRIVATE_4_DAYLIGHT,OFFICE_PRIVATE_4,OFFICE_PRIVATE_4_WINDOW_4,OFFICE_PRIVATE_4_REFERENCEPOINT1,6.3249E-003
Environment:WarmupDays,  7
! <Warmup Convergence Information>,Zone Name,Environment Type/Name,Average Warmup Temperature Difference {deltaC},Std Dev Warmup Temperature Difference {deltaC},Max Temperature Pass/Fail Convergence,Min Temperature Pass/Fail Convergence,Average Warmup Load Difference {W},Std Dev Warmup Load Difference {W},Heating Load Pass/Fail Convergence,Cooling Load Pass/Fail Convergence
 Warmup Convergence Information,BREAK_ROOM_0,RunPeriod: YEAR ROUND RUN PERIOD,0.1573668478,0.1776786970,Pass,Pass,1.4149385218E-002,1.6493938602E-002,Pass,Pass
 Warmup Convergence Information,MECHANICAL_0,RunPeriod: YEAR ROUND RUN PERIOD,0.1301797735,0.1466708805,Pass,Pass,1.1225068572E-002,1.2935119157E-002,Pass,Pass
 Warmup Convergence Information,STORAGE_0,RunPeriod: YEAR ROUND RUN PERIOD,0.1310190058,0.1461013728,Pass,Pass,1.1531092574E-002,1.3132304742E-002,Pass,Pass
 Warmup Convergence Information,BREAK_ROOM_1,RunPeriod: YEAR ROUND RUN PERIOD,0.1569211417,0.1768044310,Pass,Pass,1.3932107010E-002,1.6124153255E-002,Pass,Pass
 Warmup Convergence Information,STORAGE_1,RunPeriod: YEAR ROUND RUN PERIOD,0.2013419716,0.2175353509,Pass,Pass,1.5886036929E-002,1.7728461363E-002,Pass,Pass
 Warmup Convergence Information,LOBBY_2,RunPeriod: YEAR ROUND RUN PERIOD,0.1017864360,0.1154465921,Pass,Pass,9.4724925104E-003,1.0927290916E-002,Pass,Pass
 Warmup Convergence Information,STORAGE_2,RunPeriod: YEAR ROUND RUN PERIOD,0.1831076534,0.2063563401,Pass,Pass,1.4231824096E-002,1.6474520733E-002,Pass,Pass
 Warmup Convergence Information,OFFICE_PRIVATE_3,RunPeriod: YEAR ROUND RUN PERIOD,0.1457006798,0.1557210516,Pass,Pass,1.3041096441E-002,1.4247307564E-002,Pass,Pass
 Warmup Convergence Information,CONFERENCE_4,RunPeriod: YEAR ROUND RUN PERIOD,0.1298270410,0.1469622432,Pass,Pass,1.1480652068E-002,1.3271116045E-002,Pass,Pass
 Warmup Convergence Information,BREAK_ROOM_4,RunPeriod: YEAR ROUND RUN PERIOD,0.1515544624,0.1732855448,Pass,Pass,1.3178364484E-002,1.5448154457E-002,Pass,Pass
 Warmup Convergence Information,OFFICE_PRIVATE_4,RunPeriod: YEAR ROUND RUN PERIOD,0.1194205345,0.1370264529,Pass,Pass,1.0557225103E-002,1.2342296165E-002,Pass,Pass
 Warmup Convergence Information,STORAGE_4,RunPeriod: YEAR ROUND RUN PERIOD,0.1280617425,0.1429466006,Pass,Pass,1.0827463787E-002,1.2311572902E-002,Pass,Pass
! <Program Control Information:Threads/Parallel Sims>, Threading Supported,Maximum Number of Threads, Env Set Threads (OMP_NUM_THREADS), EP Env Set Threads (EP_OMP_NUM_THREADS), IDF Set Threads, Number of Threads Used (Interior Radiant Exchange), Number Nominal Surfaces, Number Parallel Sims
Program Control:Threads/Parallel Sims, No,1, N/A, N/A, N/A, N/A, N/A, N/A
End of Data
