Program Version,EnergyPlus, Version 24.2.0-94a887817b, YMD=2025.11.02 18:56
! This file shows details about the branches, nodes, and other
! elements of the flow connections.
! This file is intended for use in "debugging" potential problems
! that may also be detected by the program, but may be more easily
! identified by "eye".
! This file is also intended to support software which draws a
! schematic diagram of the HVAC system.
! ===============================================================
! #Nodes,<Number of Unique Nodes>
 #Nodes,561
! <Node>,<NodeNumber>,<Node Name>,<Node Fluid Type>,<# Times Node Referenced After Definition>
 Node,1,LOBBY_0_Z1_ADUOUTLET,Air,4
 Node,2,CONFERENCE_0_Z2_ADUOUTLET,Air,4
 Node,3,BREAK_ROOM_0_Z3_ADUOUTLET,Air,4
 Node,4,MECHANICAL_0_Z4_ADUOUTLET,Air,4
 Node,5,OFFICE_OPEN_0_Z5_ADUOUTLET,Air,4
 Node,6,STORAGE_0_Z6_ADUOUTLET,Air,4
 Node,7,LOBBY_1_Z7_ADUOUTLET,Air,4
 Node,8,OFFICE_OPEN_1_Z8_ADUOUTLET,Air,4
 Node,9,OFFICE_PRIVATE_1_Z9_ADUOUTLET,Air,4
 Node,10,STORAGE_1_Z10_ADUOUTLET,Air,4
 Node,11,LOBBY_2_Z11_ADUOUTLET,Air,4
 Node,12,CONFERENCE_2_Z12_ADUOUTLET,Air,4
 Node,13,BREAK_ROOM_2_Z13_ADUOUTLET,Air,4
 Node,14,OFFICE_OPEN_2_Z14_ADUOUTLET,Air,4
 Node,15,STORAGE_2_Z15_ADUOUTLET,Air,4
 Node,16,LOBBY_3_Z16_ADUOUTLET,Air,4
 Node,17,BREAK_ROOM_3_Z17_ADUOUTLET,Air,4
 Node,18,MECHANICAL_3_Z18_ADUOUTLET,Air,4
 Node,19,LOBBY_4_Z19_ADUOUTLET,Air,4
 Node,20,CONFERENCE_4_Z20_ADUOUTLET,Air,4
 Node,21,MECHANICAL_4_Z21_ADUOUTLET,Air,4
 Node,22,OFFICE_OPEN_4_Z22_ADUOUTLET,Air,4
 Node,23,OFFICE_PRIVATE_4_Z23_ADUOUTLET,Air,4
 Node,24,STORAGE_4_Z24_ADUOUTLET,Air,4
 Node,25,LOBBY_5_Z25_ADUOUTLET,Air,4
 Node,26,CONFERENCE_5_Z26_ADUOUTLET,Air,4
 Node,27,MECHANICAL_5_Z27_ADUOUTLET,Air,4
 Node,28,OFFICE_PRIVATE_5_Z28_ADUOUTLET,Air,4
 Node,29,STORAGE_5_Z29_ADUOUTLET,Air,4
 Node,30,LOBBY_6_Z30_ADUOUTLET,Air,4
 Node,31,CONFERENCE_6_Z31_ADUOUTLET,Air,4
 Node,32,BREAK_ROOM_6_Z32_ADUOUTLET,Air,4
 Node,33,OFFICE_OPEN_6_Z33_ADUOUTLET,Air,4
 Node,34,OFFICE_PRIVATE_6_Z34_ADUOUTLET,Air,4
 Node,35,STORAGE_6_Z35_ADUOUTLET,Air,4
 Node,36,LOBBY_7_Z36_ADUOUTLET,Air,4
 Node,37,CONFERENCE_7_Z37_ADUOUTLET,Air,4
 Node,38,MECHANICAL_7_Z38_ADUOUTLET,Air,4
 Node,39,OFFICE_OPEN_7_Z39_ADUOUTLET,Air,4
 Node,40,STORAGE_7_Z40_ADUOUTLET,Air,4
 Node,41,CONFERENCE_8_Z41_ADUOUTLET,Air,4
 Node,42,BREAK_ROOM_8_Z42_ADUOUTLET,Air,4
 Node,43,MECHANICAL_8_Z43_ADUOUTLET,Air,4
 Node,44,STORAGE_8_Z44_ADUOUTLET,Air,4
 Node,45,LOBBY_9_Z45_ADUOUTLET,Air,4
 Node,46,CONFERENCE_9_Z46_ADUOUTLET,Air,4
 Node,47,BREAK_ROOM_9_Z47_ADUOUTLET,Air,4
 Node,48,MECHANICAL_9_Z48_ADUOUTLET,Air,4
 Node,49,OFFICE_OPEN_9_Z49_ADUOUTLET,Air,4
 Node,50,OFFICE_PRIVATE_9_Z50_ADUOUTLET,Air,4
 Node,51,STORAGE_9_Z51_ADUOUTLET,Air,4
 Node,52,LOBBY_0_Z1_SUPPLYINLET,Air,3
 Node,53,LOBBY_0_Z1_COOLC-HEATCNODE,Air,6
 Node,54,LOBBY_0_Z1_HEATC-FANNODE,Air,5
 Node,55,LOBBY_0_Z1_SUPPLYEQUIPMENTOUTLETNODE,Air,3
 Node,56,CONFERENCE_0_Z2_SUPPLYINLET,Air,3
 Node,57,CONFERENCE_0_Z2_COOLC-HEATCNODE,Air,6
 Node,58,CONFERENCE_0_Z2_HEATC-FANNODE,Air,5
 Node,59,CONFERENCE_0_Z2_SUPPLYEQUIPMENTOUTLETNODE,Air,3
 Node,60,BREAK_ROOM_0_Z3_SUPPLYINLET,Air,3
 Node,61,BREAK_ROOM_0_Z3_COOLC-HEATCNODE,Air,6
 Node,62,BREAK_ROOM_0_Z3_HEATC-FANNODE,Air,5
 Node,63,BREAK_ROOM_0_Z3_SUPPLYEQUIPMENTOUTLETNODE,Air,3
 Node,64,MECHANICAL_0_Z4_SUPPLYINLET,Air,3
 Node,65,MECHANICAL_0_Z4_COOLC-HEATCNODE,Air,6
 Node,66,MECHANICAL_0_Z4_HEATC-FANNODE,Air,5
 Node,67,MECHANICAL_0_Z4_SUPPLYEQUIPMENTOUTLETNODE,Air,3
 Node,68,OFFICE_OPEN_0_Z5_SUPPLYINLET,Air,3
 Node,69,OFFICE_OPEN_0_Z5_COOLC-HEATCNODE,Air,6
 Node,70,OFFICE_OPEN_0_Z5_HEATC-FANNODE,Air,5
 Node,71,OFFICE_OPEN_0_Z5_SUPPLYEQUIPMENTOUTLETNODE,Air,3
 Node,72,STORAGE_0_Z6_SUPPLYINLET,Air,3
 Node,73,STORAGE_0_Z6_COOLC-HEATCNODE,Air,6
 Node,74,STORAGE_0_Z6_HEATC-FANNODE,Air,5
 Node,75,STORAGE_0_Z6_SUPPLYEQUIPMENTOUTLETNODE,Air,3
 Node,76,LOBBY_1_Z7_SUPPLYINLET,Air,3
 Node,77,LOBBY_1_Z7_COOLC-HEATCNODE,Air,6
 Node,78,LOBBY_1_Z7_HEATC-FANNODE,Air,5
 Node,79,LOBBY_1_Z7_SUPPLYEQUIPMENTOUTLETNODE,Air,3
 Node,80,OFFICE_OPEN_1_Z8_SUPPLYINLET,Air,3
 Node,81,OFFICE_OPEN_1_Z8_COOLC-HEATCNODE,Air,6
 Node,82,OFFICE_OPEN_1_Z8_HEATC-FANNODE,Air,5
 Node,83,OFFICE_OPEN_1_Z8_SUPPLYEQUIPMENTOUTLETNODE,Air,3
 Node,84,OFFICE_PRIVATE_1_Z9_SUPPLYINLET,Air,3
 Node,85,OFFICE_PRIVATE_1_Z9_COOLC-HEATCNODE,Air,6
 Node,86,OFFICE_PRIVATE_1_Z9_HEATC-FANNODE,Air,5
 Node,87,OFFICE_PRIVATE_1_Z9_SUPPLYEQUIPMENTOUTLETNODE,Air,3
 Node,88,STORAGE_1_Z10_SUPPLYINLET,Air,3
 Node,89,STORAGE_1_Z10_COOLC-HEATCNODE,Air,6
 Node,90,STORAGE_1_Z10_HEATC-FANNODE,Air,5
 Node,91,STORAGE_1_Z10_SUPPLYEQUIPMENTOUTLETNODE,Air,3
 Node,92,LOBBY_2_Z11_SUPPLYINLET,Air,3
 Node,93,LOBBY_2_Z11_COOLC-HEATCNODE,Air,6
 Node,94,LOBBY_2_Z11_HEATC-FANNODE,Air,5
 Node,95,LOBBY_2_Z11_SUPPLYEQUIPMENTOUTLETNODE,Air,3
 Node,96,CONFERENCE_2_Z12_SUPPLYINLET,Air,3
 Node,97,CONFERENCE_2_Z12_COOLC-HEATCNODE,Air,6
 Node,98,CONFERENCE_2_Z12_HEATC-FANNODE,Air,5
 Node,99,CONFERENCE_2_Z12_SUPPLYEQUIPMENTOUTLETNODE,Air,3
 Node,100,BREAK_ROOM_2_Z13_SUPPLYINLET,Air,3
 Node,101,BREAK_ROOM_2_Z13_COOLC-HEATCNODE,Air,6
 Node,102,BREAK_ROOM_2_Z13_HEATC-FANNODE,Air,5
 Node,103,BREAK_ROOM_2_Z13_SUPPLYEQUIPMENTOUTLETNODE,Air,3
 Node,104,OFFICE_OPEN_2_Z14_SUPPLYINLET,Air,3
 Node,105,OFFICE_OPEN_2_Z14_COOLC-HEATCNODE,Air,6
 Node,106,OFFICE_OPEN_2_Z14_HEATC-FANNODE,Air,5
 Node,107,OFFICE_OPEN_2_Z14_SUPPLYEQUIPMENTOUTLETNODE,Air,3
 Node,108,STORAGE_2_Z15_SUPPLYINLET,Air,3
 Node,109,STORAGE_2_Z15_COOLC-HEATCNODE,Air,6
 Node,110,STORAGE_2_Z15_HEATC-FANNODE,Air,5
 Node,111,STORAGE_2_Z15_SUPPLYEQUIPMENTOUTLETNODE,Air,3
 Node,112,LOBBY_3_Z16_SUPPLYINLET,Air,3
 Node,113,LOBBY_3_Z16_COOLC-HEATCNODE,Air,6
 Node,114,LOBBY_3_Z16_HEATC-FANNODE,Air,5
 Node,115,LOBBY_3_Z16_SUPPLYEQUIPMENTOUTLETNODE,Air,3
 Node,116,BREAK_ROOM_3_Z17_SUPPLYINLET,Air,3
 Node,117,BREAK_ROOM_3_Z17_COOLC-HEATCNODE,Air,6
 Node,118,BREAK_ROOM_3_Z17_HEATC-FANNODE,Air,5
 Node,119,BREAK_ROOM_3_Z17_SUPPLYEQUIPMENTOUTLETNODE,Air,3
 Node,120,MECHANICAL_3_Z18_SUPPLYINLET,Air,3
 Node,121,MECHANICAL_3_Z18_COOLC-HEATCNODE,Air,6
 Node,122,MECHANICAL_3_Z18_HEATC-FANNODE,Air,5
 Node,123,MECHANICAL_3_Z18_SUPPLYEQUIPMENTOUTLETNODE,Air,3
 Node,124,LOBBY_4_Z19_SUPPLYINLET,Air,3
 Node,125,LOBBY_4_Z19_COOLC-HEATCNODE,Air,6
 Node,126,LOBBY_4_Z19_HEATC-FANNODE,Air,5
 Node,127,LOBBY_4_Z19_SUPPLYEQUIPMENTOUTLETNODE,Air,3
 Node,128,CONFERENCE_4_Z20_SUPPLYINLET,Air,3
 Node,129,CONFERENCE_4_Z20_COOLC-HEATCNODE,Air,6
 Node,130,CONFERENCE_4_Z20_HEATC-FANNODE,Air,5
 Node,131,CONFERENCE_4_Z20_SUPPLYEQUIPMENTOUTLETNODE,Air,3
 Node,132,MECHANICAL_4_Z21_SUPPLYINLET,Air,3
 Node,133,MECHANICAL_4_Z21_COOLC-HEATCNODE,Air,6
 Node,134,MECHANICAL_4_Z21_HEATC-FANNODE,Air,5
 Node,135,MECHANICAL_4_Z21_SUPPLYEQUIPMENTOUTLETNODE,Air,3
 Node,136,OFFICE_OPEN_4_Z22_SUPPLYINLET,Air,3
 Node,137,OFFICE_OPEN_4_Z22_COOLC-HEATCNODE,Air,6
 Node,138,OFFICE_OPEN_4_Z22_HEATC-FANNODE,Air,5
 Node,139,OFFICE_OPEN_4_Z22_SUPPLYEQUIPMENTOUTLETNODE,Air,3
 Node,140,OFFICE_PRIVATE_4_Z23_SUPPLYINLET,Air,3
 Node,141,OFFICE_PRIVATE_4_Z23_COOLC-HEATCNODE,Air,6
 Node,142,OFFICE_PRIVATE_4_Z23_HEATC-FANNODE,Air,5
 Node,143,OFFICE_PRIVATE_4_Z23_SUPPLYEQUIPMENTOUTLETNODE,Air,3
 Node,144,STORAGE_4_Z24_SUPPLYINLET,Air,3
 Node,145,STORAGE_4_Z24_COOLC-HEATCNODE,Air,6
 Node,146,STORAGE_4_Z24_HEATC-FANNODE,Air,5
 Node,147,STORAGE_4_Z24_SUPPLYEQUIPMENTOUTLETNODE,Air,3
 Node,148,LOBBY_5_Z25_SUPPLYINLET,Air,3
 Node,149,LOBBY_5_Z25_COOLC-HEATCNODE,Air,6
 Node,150,LOBBY_5_Z25_HEATC-FANNODE,Air,5
 Node,151,LOBBY_5_Z25_SUPPLYEQUIPMENTOUTLETNODE,Air,3
 Node,152,CONFERENCE_5_Z26_SUPPLYINLET,Air,3
 Node,153,CONFERENCE_5_Z26_COOLC-HEATCNODE,Air,6
 Node,154,CONFERENCE_5_Z26_HEATC-FANNODE,Air,5
 Node,155,CONFERENCE_5_Z26_SUPPLYEQUIPMENTOUTLETNODE,Air,3
 Node,156,MECHANICAL_5_Z27_SUPPLYINLET,Air,3
 Node,157,MECHANICAL_5_Z27_COOLC-HEATCNODE,Air,6
 Node,158,MECHANICAL_5_Z27_HEATC-FANNODE,Air,5
 Node,159,MECHANICAL_5_Z27_SUPPLYEQUIPMENTOUTLETNODE,Air,3
 Node,160,OFFICE_PRIVATE_5_Z28_SUPPLYINLET,Air,3
 Node,161,OFFICE_PRIVATE_5_Z28_COOLC-HEATCNODE,Air,6
 Node,162,OFFICE_PRIVATE_5_Z28_HEATC-FANNODE,Air,5
 Node,163,OFFICE_PRIVATE_5_Z28_SUPPLYEQUIPMENTOUTLETNODE,Air,3
 Node,164,STORAGE_5_Z29_SUPPLYINLET,Air,3
 Node,165,STORAGE_5_Z29_COOLC-HEATCNODE,Air,6
 Node,166,STORAGE_5_Z29_HEATC-FANNODE,Air,5
 Node,167,STORAGE_5_Z29_SUPPLYEQUIPMENTOUTLETNODE,Air,3
 Node,168,LOBBY_6_Z30_SUPPLYINLET,Air,3
 Node,169,LOBBY_6_Z30_COOLC-HEATCNODE,Air,6
 Node,170,LOBBY_6_Z30_HEATC-FANNODE,Air,5
 Node,171,LOBBY_6_Z30_SUPPLYEQUIPMENTOUTLETNODE,Air,3
 Node,172,CONFERENCE_6_Z31_SUPPLYINLET,Air,3
 Node,173,CONFERENCE_6_Z31_COOLC-HEATCNODE,Air,6
 Node,174,CONFERENCE_6_Z31_HEATC-FANNODE,Air,5
 Node,175,CONFERENCE_6_Z31_SUPPLYEQUIPMENTOUTLETNODE,Air,3
 Node,176,BREAK_ROOM_6_Z32_SUPPLYINLET,Air,3
 Node,177,BREAK_ROOM_6_Z32_COOLC-HEATCNODE,Air,6
 Node,178,BREAK_ROOM_6_Z32_HEATC-FANNODE,Air,5
 Node,179,BREAK_ROOM_6_Z32_SUPPLYEQUIPMENTOUTLETNODE,Air,3
 Node,180,OFFICE_OPEN_6_Z33_SUPPLYINLET,Air,3
 Node,181,OFFICE_OPEN_6_Z33_COOLC-HEATCNODE,Air,6
 Node,182,OFFICE_OPEN_6_Z33_HEATC-FANNODE,Air,5
 Node,183,OFFICE_OPEN_6_Z33_SUPPLYEQUIPMENTOUTLETNODE,Air,3
 Node,184,OFFICE_PRIVATE_6_Z34_SUPPLYINLET,Air,3
 Node,185,OFFICE_PRIVATE_6_Z34_COOLC-HEATCNODE,Air,6
 Node,186,OFFICE_PRIVATE_6_Z34_HEATC-FANNODE,Air,5
 Node,187,OFFICE_PRIVATE_6_Z34_SUPPLYEQUIPMENTOUTLETNODE,Air,3
 Node,188,STORAGE_6_Z35_SUPPLYINLET,Air,3
 Node,189,STORAGE_6_Z35_COOLC-HEATCNODE,Air,6
 Node,190,STORAGE_6_Z35_HEATC-FANNODE,Air,5
 Node,191,STORAGE_6_Z35_SUPPLYEQUIPMENTOUTLETNODE,Air,3
 Node,192,LOBBY_7_Z36_SUPPLYINLET,Air,3
 Node,193,LOBBY_7_Z36_COOLC-HEATCNODE,Air,6
 Node,194,LOBBY_7_Z36_HEATC-FANNODE,Air,5
 Node,195,LOBBY_7_Z36_SUPPLYEQUIPMENTOUTLETNODE,Air,3
 Node,196,CONFERENCE_7_Z37_SUPPLYINLET,Air,3
 Node,197,CONFERENCE_7_Z37_COOLC-HEATCNODE,Air,6
 Node,198,CONFERENCE_7_Z37_HEATC-FANNODE,Air,5
 Node,199,CONFERENCE_7_Z37_SUPPLYEQUIPMENTOUTLETNODE,Air,3
 Node,200,MECHANICAL_7_Z38_SUPPLYINLET,Air,3
 Node,201,MECHANICAL_7_Z38_COOLC-HEATCNODE,Air,6
 Node,202,MECHANICAL_7_Z38_HEATC-FANNODE,Air,5
 Node,203,MECHANICAL_7_Z38_SUPPLYEQUIPMENTOUTLETNODE,Air,3
 Node,204,OFFICE_OPEN_7_Z39_SUPPLYINLET,Air,3
 Node,205,OFFICE_OPEN_7_Z39_COOLC-HEATCNODE,Air,6
 Node,206,OFFICE_OPEN_7_Z39_HEATC-FANNODE,Air,5
 Node,207,OFFICE_OPEN_7_Z39_SUPPLYEQUIPMENTOUTLETNODE,Air,3
 Node,208,STORAGE_7_Z40_SUPPLYINLET,Air,3
 Node,209,STORAGE_7_Z40_COOLC-HEATCNODE,Air,6
 Node,210,STORAGE_7_Z40_HEATC-FANNODE,Air,5
 Node,211,STORAGE_7_Z40_SUPPLYEQUIPMENTOUTLETNODE,Air,3
 Node,212,CONFERENCE_8_Z41_SUPPLYINLET,Air,3
 Node,213,CONFERENCE_8_Z41_COOLC-HEATCNODE,Air,6
 Node,214,CONFERENCE_8_Z41_HEATC-FANNODE,Air,5
 Node,215,CONFERENCE_8_Z41_SUPPLYEQUIPMENTOUTLETNODE,Air,3
 Node,216,BREAK_ROOM_8_Z42_SUPPLYINLET,Air,3
 Node,217,BREAK_ROOM_8_Z42_COOLC-HEATCNODE,Air,6
 Node,218,BREAK_ROOM_8_Z42_HEATC-FANNODE,Air,5
 Node,219,BREAK_ROOM_8_Z42_SUPPLYEQUIPMENTOUTLETNODE,Air,3
 Node,220,MECHANICAL_8_Z43_SUPPLYINLET,Air,3
 Node,221,MECHANICAL_8_Z43_COOLC-HEATCNODE,Air,6
 Node,222,MECHANICAL_8_Z43_HEATC-FANNODE,Air,5
 Node,223,MECHANICAL_8_Z43_SUPPLYEQUIPMENTOUTLETNODE,Air,3
 Node,224,STORAGE_8_Z44_SUPPLYINLET,Air,3
 Node,225,STORAGE_8_Z44_COOLC-HEATCNODE,Air,6
 Node,226,STORAGE_8_Z44_HEATC-FANNODE,Air,5
 Node,227,STORAGE_8_Z44_SUPPLYEQUIPMENTOUTLETNODE,Air,3
 Node,228,LOBBY_9_Z45_SUPPLYINLET,Air,3
 Node,229,LOBBY_9_Z45_COOLC-HEATCNODE,Air,6
 Node,230,LOBBY_9_Z45_HEATC-FANNODE,Air,5
 Node,231,LOBBY_9_Z45_SUPPLYEQUIPMENTOUTLETNODE,Air,3
 Node,232,CONFERENCE_9_Z46_SUPPLYINLET,Air,3
 Node,233,CONFERENCE_9_Z46_COOLC-HEATCNODE,Air,6
 Node,234,CONFERENCE_9_Z46_HEATC-FANNODE,Air,5
 Node,235,CONFERENCE_9_Z46_SUPPLYEQUIPMENTOUTLETNODE,Air,3
 Node,236,BREAK_ROOM_9_Z47_SUPPLYINLET,Air,3
 Node,237,BREAK_ROOM_9_Z47_COOLC-HEATCNODE,Air,6
 Node,238,BREAK_ROOM_9_Z47_HEATC-FANNODE,Air,5
 Node,239,BREAK_ROOM_9_Z47_SUPPLYEQUIPMENTOUTLETNODE,Air,3
 Node,240,MECHANICAL_9_Z48_SUPPLYINLET,Air,3
 Node,241,MECHANICAL_9_Z48_COOLC-HEATCNODE,Air,6
 Node,242,MECHANICAL_9_Z48_HEATC-FANNODE,Air,5
 Node,243,MECHANICAL_9_Z48_SUPPLYEQUIPMENTOUTLETNODE,Air,3
 Node,244,OFFICE_OPEN_9_Z49_SUPPLYINLET,Air,3
 Node,245,OFFICE_OPEN_9_Z49_COOLC-HEATCNODE,Air,6
 Node,246,OFFICE_OPEN_9_Z49_HEATC-FANNODE,Air,5
 Node,247,OFFICE_OPEN_9_Z49_SUPPLYEQUIPMENTOUTLETNODE,Air,3
 Node,248,OFFICE_PRIVATE_9_Z50_SUPPLYINLET,Air,3
 Node,249,OFFICE_PRIVATE_9_Z50_COOLC-HEATCNODE,Air,6
 Node,250,OFFICE_PRIVATE_9_Z50_HEATC-FANNODE,Air,5
 Node,251,OFFICE_PRIVATE_9_Z50_SUPPLYEQUIPMENTOUTLETNODE,Air,3
 Node,252,STORAGE_9_Z51_SUPPLYINLET,Air,3
 Node,253,STORAGE_9_Z51_COOLC-HEATCNODE,Air,6
 Node,254,STORAGE_9_Z51_HEATC-FANNODE,Air,5
 Node,255,STORAGE_9_Z51_SUPPLYEQUIPMENTOUTLETNODE,Air,3
 Node,256,LOBBY_0 AIR NODE,Air,0
 Node,257,LOBBY_0_Z1_RETURNAIR,Air,1
 Node,258,CONFERENCE_0 AIR NODE,Air,0
 Node,259,CONFERENCE_0_Z2_RETURNAIR,Air,1
 Node,260,BREAK_ROOM_0 AIR NODE,Air,0
 Node,261,BREAK_ROOM_0_Z3_RETURNAIR,Air,1
 Node,262,MECHANICAL_0 AIR NODE,Air,0
 Node,263,MECHANICAL_0_Z4_RETURNAIR,Air,1
 Node,264,OFFICE_OPEN_0 AIR NODE,Air,0
 Node,265,OFFICE_OPEN_0_Z5_RETURNAIR,Air,1
 Node,266,STORAGE_0 AIR NODE,Air,0
 Node,267,STORAGE_0_Z6_RETURNAIR,Air,1
 Node,268,LOBBY_1 AIR NODE,Air,0
 Node,269,LOBBY_1_Z7_RETURNAIR,Air,1
 Node,270,OFFICE_OPEN_1 AIR NODE,Air,0
 Node,271,OFFICE_OPEN_1_Z8_RETURNAIR,Air,1
 Node,272,OFFICE_PRIVATE_1 AIR NODE,Air,0
 Node,273,OFFICE_PRIVATE_1_Z9_RETURNAIR,Air,1
 Node,274,STORAGE_1 AIR NODE,Air,0
 Node,275,STORAGE_1_Z10_RETURNAIR,Air,1
 Node,276,LOBBY_2 AIR NODE,Air,0
 Node,277,LOBBY_2_Z11_RETURNAIR,Air,1
 Node,278,CONFERENCE_2 AIR NODE,Air,0
 Node,279,CONFERENCE_2_Z12_RETURNAIR,Air,1
 Node,280,BREAK_ROOM_2 AIR NODE,Air,0
 Node,281,BREAK_ROOM_2_Z13_RETURNAIR,Air,1
 Node,282,OFFICE_OPEN_2 AIR NODE,Air,0
 Node,283,OFFICE_OPEN_2_Z14_RETURNAIR,Air,1
 Node,284,STORAGE_2 AIR NODE,Air,0
 Node,285,STORAGE_2_Z15_RETURNAIR,Air,1
 Node,286,LOBBY_3 AIR NODE,Air,0
 Node,287,LOBBY_3_Z16_RETURNAIR,Air,1
 Node,288,BREAK_ROOM_3 AIR NODE,Air,0
 Node,289,BREAK_ROOM_3_Z17_RETURNAIR,Air,1
 Node,290,MECHANICAL_3 AIR NODE,Air,0
 Node,291,MECHANICAL_3_Z18_RETURNAIR,Air,1
 Node,292,LOBBY_4 AIR NODE,Air,0
 Node,293,LOBBY_4_Z19_RETURNAIR,Air,1
 Node,294,CONFERENCE_4 AIR NODE,Air,0
 Node,295,CONFERENCE_4_Z20_RETURNAIR,Air,1
 Node,296,MECHANICAL_4 AIR NODE,Air,0
 Node,297,MECHANICAL_4_Z21_RETURNAIR,Air,1
 Node,298,OFFICE_OPEN_4 AIR NODE,Air,0
 Node,299,OFFICE_OPEN_4_Z22_RETURNAIR,Air,1
 Node,300,OFFICE_PRIVATE_4 AIR NODE,Air,0
 Node,301,OFFICE_PRIVATE_4_Z23_RETURNAIR,Air,1
 Node,302,STORAGE_4 AIR NODE,Air,0
 Node,303,STORAGE_4_Z24_RETURNAIR,Air,1
 Node,304,LOBBY_5 AIR NODE,Air,0
 Node,305,LOBBY_5_Z25_RETURNAIR,Air,1
 Node,306,CONFERENCE_5 AIR NODE,Air,0
 Node,307,CONFERENCE_5_Z26_RETURNAIR,Air,1
 Node,308,MECHANICAL_5 AIR NODE,Air,0
 Node,309,MECHANICAL_5_Z27_RETURNAIR,Air,1
 Node,310,OFFICE_PRIVATE_5 AIR NODE,Air,0
 Node,311,OFFICE_PRIVATE_5_Z28_RETURNAIR,Air,1
 Node,312,STORAGE_5 AIR NODE,Air,0
 Node,313,STORAGE_5_Z29_RETURNAIR,Air,1
 Node,314,LOBBY_6 AIR NODE,Air,0
 Node,315,LOBBY_6_Z30_RETURNAIR,Air,1
 Node,316,CONFERENCE_6 AIR NODE,Air,0
 Node,317,CONFERENCE_6_Z31_RETURNAIR,Air,1
 Node,318,BREAK_ROOM_6 AIR NODE,Air,0
 Node,319,BREAK_ROOM_6_Z32_RETURNAIR,Air,1
 Node,320,OFFICE_OPEN_6 AIR NODE,Air,0
 Node,321,OFFICE_OPEN_6_Z33_RETURNAIR,Air,1
 Node,322,OFFICE_PRIVATE_6 AIR NODE,Air,0
 Node,323,OFFICE_PRIVATE_6_Z34_RETURNAIR,Air,1
 Node,324,STORAGE_6 AIR NODE,Air,0
 Node,325,STORAGE_6_Z35_RETURNAIR,Air,1
 Node,326,LOBBY_7 AIR NODE,Air,0
 Node,327,LOBBY_7_Z36_RETURNAIR,Air,1
 Node,328,CONFERENCE_7 AIR NODE,Air,0
 Node,329,CONFERENCE_7_Z37_RETURNAIR,Air,1
 Node,330,MECHANICAL_7 AIR NODE,Air,0
 Node,331,MECHANICAL_7_Z38_RETURNAIR,Air,1
 Node,332,OFFICE_OPEN_7 AIR NODE,Air,0
 Node,333,OFFICE_OPEN_7_Z39_RETURNAIR,Air,1
 Node,334,STORAGE_7 AIR NODE,Air,0
 Node,335,STORAGE_7_Z40_RETURNAIR,Air,1
 Node,336,CONFERENCE_8 AIR NODE,Air,0
 Node,337,CONFERENCE_8_Z41_RETURNAIR,Air,1
 Node,338,BREAK_ROOM_8 AIR NODE,Air,0
 Node,339,BREAK_ROOM_8_Z42_RETURNAIR,Air,1
 Node,340,MECHANICAL_8 AIR NODE,Air,0
 Node,341,MECHANICAL_8_Z43_RETURNAIR,Air,1
 Node,342,STORAGE_8 AIR NODE,Air,0
 Node,343,STORAGE_8_Z44_RETURNAIR,Air,1
 Node,344,LOBBY_9 AIR NODE,Air,0
 Node,345,LOBBY_9_Z45_RETURNAIR,Air,1
 Node,346,CONFERENCE_9 AIR NODE,Air,0
 Node,347,CONFERENCE_9_Z46_RETURNAIR,Air,1
 Node,348,BREAK_ROOM_9 AIR NODE,Air,0
 Node,349,BREAK_ROOM_9_Z47_RETURNAIR,Air,1
 Node,350,MECHANICAL_9 AIR NODE,Air,0
 Node,351,MECHANICAL_9_Z48_RETURNAIR,Air,1
 Node,352,OFFICE_OPEN_9 AIR NODE,Air,0
 Node,353,OFFICE_OPEN_9_Z49_RETURNAIR,Air,1
 Node,354,OFFICE_PRIVATE_9 AIR NODE,Air,0
 Node,355,OFFICE_PRIVATE_9_Z50_RETURNAIR,Air,1
 Node,356,STORAGE_9 AIR NODE,Air,0
 Node,357,STORAGE_9_Z51_RETURNAIR,Air,1
 Node,358,LOBBY_0_Z1_ZONEEQUIPMENTINLET,Air,2
 Node,359,CONFERENCE_0_Z2_ZONEEQUIPMENTINLET,Air,2
 Node,360,BREAK_ROOM_0_Z3_ZONEEQUIPMENTINLET,Air,2
 Node,361,MECHANICAL_0_Z4_ZONEEQUIPMENTINLET,Air,2
 Node,362,OFFICE_OPEN_0_Z5_ZONEEQUIPMENTINLET,Air,2
 Node,363,STORAGE_0_Z6_ZONEEQUIPMENTINLET,Air,2
 Node,364,LOBBY_1_Z7_ZONEEQUIPMENTINLET,Air,2
 Node,365,OFFICE_OPEN_1_Z8_ZONEEQUIPMENTINLET,Air,2
 Node,366,OFFICE_PRIVATE_1_Z9_ZONEEQUIPMENTINLET,Air,2
 Node,367,STORAGE_1_Z10_ZONEEQUIPMENTINLET,Air,2
 Node,368,LOBBY_2_Z11_ZONEEQUIPMENTINLET,Air,2
 Node,369,CONFERENCE_2_Z12_ZONEEQUIPMENTINLET,Air,2
 Node,370,BREAK_ROOM_2_Z13_ZONEEQUIPMENTINLET,Air,2
 Node,371,OFFICE_OPEN_2_Z14_ZONEEQUIPMENTINLET,Air,2
 Node,372,STORAGE_2_Z15_ZONEEQUIPMENTINLET,Air,2
 Node,373,LOBBY_3_Z16_ZONEEQUIPMENTINLET,Air,2
 Node,374,BREAK_ROOM_3_Z17_ZONEEQUIPMENTINLET,Air,2
 Node,375,MECHANICAL_3_Z18_ZONEEQUIPMENTINLET,Air,2
 Node,376,LOBBY_4_Z19_ZONEEQUIPMENTINLET,Air,2
 Node,377,CONFERENCE_4_Z20_ZONEEQUIPMENTINLET,Air,2
 Node,378,MECHANICAL_4_Z21_ZONEEQUIPMENTINLET,Air,2
 Node,379,OFFICE_OPEN_4_Z22_ZONEEQUIPMENTINLET,Air,2
 Node,380,OFFICE_PRIVATE_4_Z23_ZONEEQUIPMENTINLET,Air,2
 Node,381,STORAGE_4_Z24_ZONEEQUIPMENTINLET,Air,2
 Node,382,LOBBY_5_Z25_ZONEEQUIPMENTINLET,Air,2
 Node,383,CONFERENCE_5_Z26_ZONEEQUIPMENTINLET,Air,2
 Node,384,MECHANICAL_5_Z27_ZONEEQUIPMENTINLET,Air,2
 Node,385,OFFICE_PRIVATE_5_Z28_ZONEEQUIPMENTINLET,Air,2
 Node,386,STORAGE_5_Z29_ZONEEQUIPMENTINLET,Air,2
 Node,387,LOBBY_6_Z30_ZONEEQUIPMENTINLET,Air,2
 Node,388,CONFERENCE_6_Z31_ZONEEQUIPMENTINLET,Air,2
 Node,389,BREAK_ROOM_6_Z32_ZONEEQUIPMENTINLET,Air,2
 Node,390,OFFICE_OPEN_6_Z33_ZONEEQUIPMENTINLET,Air,2
 Node,391,OFFICE_PRIVATE_6_Z34_ZONEEQUIPMENTINLET,Air,2
 Node,392,STORAGE_6_Z35_ZONEEQUIPMENTINLET,Air,2
 Node,393,LOBBY_7_Z36_ZONEEQUIPMENTINLET,Air,2
 Node,394,CONFERENCE_7_Z37_ZONEEQUIPMENTINLET,Air,2
 Node,395,MECHANICAL_7_Z38_ZONEEQUIPMENTINLET,Air,2
 Node,396,OFFICE_OPEN_7_Z39_ZONEEQUIPMENTINLET,Air,2
 Node,397,STORAGE_7_Z40_ZONEEQUIPMENTINLET,Air,2
 Node,398,CONFERENCE_8_Z41_ZONEEQUIPMENTINLET,Air,2
 Node,399,BREAK_ROOM_8_Z42_ZONEEQUIPMENTINLET,Air,2
 Node,400,MECHANICAL_8_Z43_ZONEEQUIPMENTINLET,Air,2
 Node,401,STORAGE_8_Z44_ZONEEQUIPMENTINLET,Air,2
 Node,402,LOBBY_9_Z45_ZONEEQUIPMENTINLET,Air,2
 Node,403,CONFERENCE_9_Z46_ZONEEQUIPMENTINLET,Air,2
 Node,404,BREAK_ROOM_9_Z47_ZONEEQUIPMENTINLET,Air,2
 Node,405,MECHANICAL_9_Z48_ZONEEQUIPMENTINLET,Air,2
 Node,406,OFFICE_OPEN_9_Z49_ZONEEQUIPMENTINLET,Air,2
 Node,407,OFFICE_PRIVATE_9_Z50_ZONEEQUIPMENTINLET,Air,2
 Node,408,STORAGE_9_Z51_ZONEEQUIPMENTINLET,Air,2
 Node,409,LOBBY_0_Z1_ZONEEQUIPMENTOUTLETNODE,Air,2
 Node,410,CONFERENCE_0_Z2_ZONEEQUIPMENTOUTLETNODE,Air,2
 Node,411,BREAK_ROOM_0_Z3_ZONEEQUIPMENTOUTLETNODE,Air,2
 Node,412,MECHANICAL_0_Z4_ZONEEQUIPMENTOUTLETNODE,Air,2
 Node,413,OFFICE_OPEN_0_Z5_ZONEEQUIPMENTOUTLETNODE,Air,2
 Node,414,STORAGE_0_Z6_ZONEEQUIPMENTOUTLETNODE,Air,2
 Node,415,LOBBY_1_Z7_ZONEEQUIPMENTOUTLETNODE,Air,2
 Node,416,OFFICE_OPEN_1_Z8_ZONEEQUIPMENTOUTLETNODE,Air,2
 Node,417,OFFICE_PRIVATE_1_Z9_ZONEEQUIPMENTOUTLETNODE,Air,2
 Node,418,STORAGE_1_Z10_ZONEEQUIPMENTOUTLETNODE,Air,2
 Node,419,LOBBY_2_Z11_ZONEEQUIPMENTOUTLETNODE,Air,2
 Node,420,CONFERENCE_2_Z12_ZONEEQUIPMENTOUTLETNODE,Air,2
 Node,421,BREAK_ROOM_2_Z13_ZONEEQUIPMENTOUTLETNODE,Air,2
 Node,422,OFFICE_OPEN_2_Z14_ZONEEQUIPMENTOUTLETNODE,Air,2
 Node,423,STORAGE_2_Z15_ZONEEQUIPMENTOUTLETNODE,Air,2
 Node,424,LOBBY_3_Z16_ZONEEQUIPMENTOUTLETNODE,Air,2
 Node,425,BREAK_ROOM_3_Z17_ZONEEQUIPMENTOUTLETNODE,Air,2
 Node,426,MECHANICAL_3_Z18_ZONEEQUIPMENTOUTLETNODE,Air,2
 Node,427,LOBBY_4_Z19_ZONEEQUIPMENTOUTLETNODE,Air,2
 Node,428,CONFERENCE_4_Z20_ZONEEQUIPMENTOUTLETNODE,Air,2
 Node,429,MECHANICAL_4_Z21_ZONEEQUIPMENTOUTLETNODE,Air,2
 Node,430,OFFICE_OPEN_4_Z22_ZONEEQUIPMENTOUTLETNODE,Air,2
 Node,431,OFFICE_PRIVATE_4_Z23_ZONEEQUIPMENTOUTLETNODE,Air,2
 Node,432,STORAGE_4_Z24_ZONEEQUIPMENTOUTLETNODE,Air,2
 Node,433,LOBBY_5_Z25_ZONEEQUIPMENTOUTLETNODE,Air,2
 Node,434,CONFERENCE_5_Z26_ZONEEQUIPMENTOUTLETNODE,Air,2
 Node,435,MECHANICAL_5_Z27_ZONEEQUIPMENTOUTLETNODE,Air,2
 Node,436,OFFICE_PRIVATE_5_Z28_ZONEEQUIPMENTOUTLETNODE,Air,2
 Node,437,STORAGE_5_Z29_ZONEEQUIPMENTOUTLETNODE,Air,2
 Node,438,LOBBY_6_Z30_ZONEEQUIPMENTOUTLETNODE,Air,2
 Node,439,CONFERENCE_6_Z31_ZONEEQUIPMENTOUTLETNODE,Air,2
 Node,440,BREAK_ROOM_6_Z32_ZONEEQUIPMENTOUTLETNODE,Air,2
 Node,441,OFFICE_OPEN_6_Z33_ZONEEQUIPMENTOUTLETNODE,Air,2
 Node,442,OFFICE_PRIVATE_6_Z34_ZONEEQUIPMENTOUTLETNODE,Air,2
 Node,443,STORAGE_6_Z35_ZONEEQUIPMENTOUTLETNODE,Air,2
 Node,444,LOBBY_7_Z36_ZONEEQUIPMENTOUTLETNODE,Air,2
 Node,445,CONFERENCE_7_Z37_ZONEEQUIPMENTOUTLETNODE,Air,2
 Node,446,MECHANICAL_7_Z38_ZONEEQUIPMENTOUTLETNODE,Air,2
 Node,447,OFFICE_OPEN_7_Z39_ZONEEQUIPMENTOUTLETNODE,Air,2
 Node,448,STORAGE_7_Z40_ZONEEQUIPMENTOUTLETNODE,Air,2
 Node,449,CONFERENCE_8_Z41_ZONEEQUIPMENTOUTLETNODE,Air,2
 Node,450,BREAK_ROOM_8_Z42_ZONEEQUIPMENTOUTLETNODE,Air,2
 Node,451,MECHANICAL_8_Z43_ZONEEQUIPMENTOUTLETNODE,Air,2
 Node,452,STORAGE_8_Z44_ZONEEQUIPMENTOUTLETNODE,Air,2
 Node,453,LOBBY_9_Z45_ZONEEQUIPMENTOUTLETNODE,Air,2
 Node,454,CONFERENCE_9_Z46_ZONEEQUIPMENTOUTLETNODE,Air,2
 Node,455,BREAK_ROOM_9_Z47_ZONEEQUIPMENTOUTLETNODE,Air,2
 Node,456,MECHANICAL_9_Z48_ZONEEQUIPMENTOUTLETNODE,Air,2
 Node,457,OFFICE_OPEN_9_Z49_ZONEEQUIPMENTOUTLETNODE,Air,2
 Node,458,OFFICE_PRIVATE_9_Z50_ZONEEQUIPMENTOUTLETNODE,Air,2
 Node,459,STORAGE_9_Z51_ZONEEQUIPMENTOUTLETNODE,Air,2
 Node,460,LOBBY_0_Z1_TERMINALINLET,Air,1
 Node,461,CONFERENCE_0_Z2_TERMINALINLET,Air,1
 Node,462,BREAK_ROOM_0_Z3_TERMINALINLET,Air,1
 Node,463,MECHANICAL_0_Z4_TERMINALINLET,Air,1
 Node,464,OFFICE_OPEN_0_Z5_TERMINALINLET,Air,1
 Node,465,STORAGE_0_Z6_TERMINALINLET,Air,1
 Node,466,LOBBY_1_Z7_TERMINALINLET,Air,1
 Node,467,OFFICE_OPEN_1_Z8_TERMINALINLET,Air,1
 Node,468,OFFICE_PRIVATE_1_Z9_TERMINALINLET,Air,1
 Node,469,STORAGE_1_Z10_TERMINALINLET,Air,1
 Node,470,LOBBY_2_Z11_TERMINALINLET,Air,1
 Node,471,CONFERENCE_2_Z12_TERMINALINLET,Air,1
 Node,472,BREAK_ROOM_2_Z13_TERMINALINLET,Air,1
 Node,473,OFFICE_OPEN_2_Z14_TERMINALINLET,Air,1
 Node,474,STORAGE_2_Z15_TERMINALINLET,Air,1
 Node,475,LOBBY_3_Z16_TERMINALINLET,Air,1
 Node,476,BREAK_ROOM_3_Z17_TERMINALINLET,Air,1
 Node,477,MECHANICAL_3_Z18_TERMINALINLET,Air,1
 Node,478,LOBBY_4_Z19_TERMINALINLET,Air,1
 Node,479,CONFERENCE_4_Z20_TERMINALINLET,Air,1
 Node,480,MECHANICAL_4_Z21_TERMINALINLET,Air,1
 Node,481,OFFICE_OPEN_4_Z22_TERMINALINLET,Air,1
 Node,482,OFFICE_PRIVATE_4_Z23_TERMINALINLET,Air,1
 Node,483,STORAGE_4_Z24_TERMINALINLET,Air,1
 Node,484,LOBBY_5_Z25_TERMINALINLET,Air,1
 Node,485,CONFERENCE_5_Z26_TERMINALINLET,Air,1
 Node,486,MECHANICAL_5_Z27_TERMINALINLET,Air,1
 Node,487,OFFICE_PRIVATE_5_Z28_TERMINALINLET,Air,1
 Node,488,STORAGE_5_Z29_TERMINALINLET,Air,1
 Node,489,LOBBY_6_Z30_TERMINALINLET,Air,1
 Node,490,CONFERENCE_6_Z31_TERMINALINLET,Air,1
 Node,491,BREAK_ROOM_6_Z32_TERMINALINLET,Air,1
 Node,492,OFFICE_OPEN_6_Z33_TERMINALINLET,Air,1
 Node,493,OFFICE_PRIVATE_6_Z34_TERMINALINLET,Air,1
 Node,494,STORAGE_6_Z35_TERMINALINLET,Air,1
 Node,495,LOBBY_7_Z36_TERMINALINLET,Air,1
 Node,496,CONFERENCE_7_Z37_TERMINALINLET,Air,1
 Node,497,MECHANICAL_7_Z38_TERMINALINLET,Air,1
 Node,498,OFFICE_OPEN_7_Z39_TERMINALINLET,Air,1
 Node,499,STORAGE_7_Z40_TERMINALINLET,Air,1
 Node,500,CONFERENCE_8_Z41_TERMINALINLET,Air,1
 Node,501,BREAK_ROOM_8_Z42_TERMINALINLET,Air,1
 Node,502,MECHANICAL_8_Z43_TERMINALINLET,Air,1
 Node,503,STORAGE_8_Z44_TERMINALINLET,Air,1
 Node,504,LOBBY_9_Z45_TERMINALINLET,Air,1
 Node,505,CONFERENCE_9_Z46_TERMINALINLET,Air,1
 Node,506,BREAK_ROOM_9_Z47_TERMINALINLET,Air,1
 Node,507,MECHANICAL_9_Z48_TERMINALINLET,Air,1
 Node,508,OFFICE_OPEN_9_Z49_TERMINALINLET,Air,1
 Node,509,OFFICE_PRIVATE_9_Z50_TERMINALINLET,Air,1
 Node,510,STORAGE_9_Z51_TERMINALINLET,Air,1
 Node,511,LOBBY_0_Z1_TERMINALOUTLET,Air,1
 Node,512,CONFERENCE_0_Z2_TERMINALOUTLET,Air,1
 Node,513,BREAK_ROOM_0_Z3_TERMINALOUTLET,Air,1
 Node,514,MECHANICAL_0_Z4_TERMINALOUTLET,Air,1
 Node,515,OFFICE_OPEN_0_Z5_TERMINALOUTLET,Air,1
 Node,516,STORAGE_0_Z6_TERMINALOUTLET,Air,1
 Node,517,LOBBY_1_Z7_TERMINALOUTLET,Air,1
 Node,518,OFFICE_OPEN_1_Z8_TERMINALOUTLET,Air,1
 Node,519,OFFICE_PRIVATE_1_Z9_TERMINALOUTLET,Air,1
 Node,520,STORAGE_1_Z10_TERMINALOUTLET,Air,1
 Node,521,LOBBY_2_Z11_TERMINALOUTLET,Air,1
 Node,522,CONFERENCE_2_Z12_TERMINALOUTLET,Air,1
 Node,523,BREAK_ROOM_2_Z13_TERMINALOUTLET,Air,1
 Node,524,OFFICE_OPEN_2_Z14_TERMINALOUTLET,Air,1
 Node,525,STORAGE_2_Z15_TERMINALOUTLET,Air,1
 Node,526,LOBBY_3_Z16_TERMINALOUTLET,Air,1
 Node,527,BREAK_ROOM_3_Z17_TERMINALOUTLET,Air,1
 Node,528,MECHANICAL_3_Z18_TERMINALOUTLET,Air,1
 Node,529,LOBBY_4_Z19_TERMINALOUTLET,Air,1
 Node,530,CONFERENCE_4_Z20_TERMINALOUTLET,Air,1
 Node,531,MECHANICAL_4_Z21_TERMINALOUTLET,Air,1
 Node,532,OFFICE_OPEN_4_Z22_TERMINALOUTLET,Air,1
 Node,533,OFFICE_PRIVATE_4_Z23_TERMINALOUTLET,Air,1
 Node,534,STORAGE_4_Z24_TERMINALOUTLET,Air,1
 Node,535,LOBBY_5_Z25_TERMINALOUTLET,Air,1
 Node,536,CONFERENCE_5_Z26_TERMINALOUTLET,Air,1
 Node,537,MECHANICAL_5_Z27_TERMINALOUTLET,Air,1
 Node,538,OFFICE_PRIVATE_5_Z28_TERMINALOUTLET,Air,1
 Node,539,STORAGE_5_Z29_TERMINALOUTLET,Air,1
 Node,540,LOBBY_6_Z30_TERMINALOUTLET,Air,1
 Node,541,CONFERENCE_6_Z31_TERMINALOUTLET,Air,1
 Node,542,BREAK_ROOM_6_Z32_TERMINALOUTLET,Air,1
 Node,543,OFFICE_OPEN_6_Z33_TERMINALOUTLET,Air,1
 Node,544,OFFICE_PRIVATE_6_Z34_TERMINALOUTLET,Air,1
 Node,545,STORAGE_6_Z35_TERMINALOUTLET,Air,1
 Node,546,LOBBY_7_Z36_TERMINALOUTLET,Air,1
 Node,547,CONFERENCE_7_Z37_TERMINALOUTLET,Air,1
 Node,548,MECHANICAL_7_Z38_TERMINALOUTLET,Air,1
 Node,549,OFFICE_OPEN_7_Z39_TERMINALOUTLET,Air,1
 Node,550,STORAGE_7_Z40_TERMINALOUTLET,Air,1
 Node,551,CONFERENCE_8_Z41_TERMINALOUTLET,Air,1
 Node,552,BREAK_ROOM_8_Z42_TERMINALOUTLET,Air,1
 Node,553,MECHANICAL_8_Z43_TERMINALOUTLET,Air,1
 Node,554,STORAGE_8_Z44_TERMINALOUTLET,Air,1
 Node,555,LOBBY_9_Z45_TERMINALOUTLET,Air,1
 Node,556,CONFERENCE_9_Z46_TERMINALOUTLET,Air,1
 Node,557,BREAK_ROOM_9_Z47_TERMINALOUTLET,Air,1
 Node,558,MECHANICAL_9_Z48_TERMINALOUTLET,Air,1
 Node,559,OFFICE_OPEN_9_Z49_TERMINALOUTLET,Air,1
 Node,560,OFFICE_PRIVATE_9_Z50_TERMINALOUTLET,Air,1
 Node,561,STORAGE_9_Z51_TERMINALOUTLET,Air,1
! ===============================================================
! Suspicious nodes have 0 references.  It is normal for some nodes, however.
! Listing nodes with 0 references (culled from previous list):
! <Suspicious Node>,<NodeNumber>,<Node Name>,<Node Fluid Type>,<# Times Node Referenced After Definition>
 Suspicious Node,256,LOBBY_0 AIR NODE,Air,0
 Suspicious Node,258,CONFERENCE_0 AIR NODE,Air,0
 Suspicious Node,260,BREAK_ROOM_0 AIR NODE,Air,0
 Suspicious Node,262,MECHANICAL_0 AIR NODE,Air,0
 Suspicious Node,264,OFFICE_OPEN_0 AIR NODE,Air,0
 Suspicious Node,266,STORAGE_0 AIR NODE,Air,0
 Suspicious Node,268,LOBBY_1 AIR NODE,Air,0
 Suspicious Node,270,OFFICE_OPEN_1 AIR NODE,Air,0
 Suspicious Node,272,OFFICE_PRIVATE_1 AIR NODE,Air,0
 Suspicious Node,274,STORAGE_1 AIR NODE,Air,0
 Suspicious Node,276,LOBBY_2 AIR NODE,Air,0
 Suspicious Node,278,CONFERENCE_2 AIR NODE,Air,0
 Suspicious Node,280,BREAK_ROOM_2 AIR NODE,Air,0
 Suspicious Node,282,OFFICE_OPEN_2 AIR NODE,Air,0
 Suspicious Node,284,STORAGE_2 AIR NODE,Air,0
 Suspicious Node,286,LOBBY_3 AIR NODE,Air,0
 Suspicious Node,288,BREAK_ROOM_3 AIR NODE,Air,0
 Suspicious Node,290,MECHANICAL_3 AIR NODE,Air,0
 Suspicious Node,292,LOBBY_4 AIR NODE,Air,0
 Suspicious Node,294,CONFERENCE_4 AIR NODE,Air,0
 Suspicious Node,296,MECHANICAL_4 AIR NODE,Air,0
 Suspicious Node,298,OFFICE_OPEN_4 AIR NODE,Air,0
 Suspicious Node,300,OFFICE_PRIVATE_4 AIR NODE,Air,0
 Suspicious Node,302,STORAGE_4 AIR NODE,Air,0
 Suspicious Node,304,LOBBY_5 AIR NODE,Air,0
 Suspicious Node,306,CONFERENCE_5 AIR NODE,Air,0
 Suspicious Node,308,MECHANICAL_5 AIR NODE,Air,0
 Suspicious Node,310,OFFICE_PRIVATE_5 AIR NODE,Air,0
 Suspicious Node,312,STORAGE_5 AIR NODE,Air,0
 Suspicious Node,314,LOBBY_6 AIR NODE,Air,0
 Suspicious Node,316,CONFERENCE_6 AIR NODE,Air,0
 Suspicious Node,318,BREAK_ROOM_6 AIR NODE,Air,0
 Suspicious Node,320,OFFICE_OPEN_6 AIR NODE,Air,0
 Suspicious Node,322,OFFICE_PRIVATE_6 AIR NODE,Air,0
 Suspicious Node,324,STORAGE_6 AIR NODE,Air,0
 Suspicious Node,326,LOBBY_7 AIR NODE,Air,0
 Suspicious Node,328,CONFERENCE_7 AIR NODE,Air,0
 Suspicious Node,330,MECHANICAL_7 AIR NODE,Air,0
 Suspicious Node,332,OFFICE_OPEN_7 AIR NODE,Air,0
 Suspicious Node,334,STORAGE_7 AIR NODE,Air,0
 Suspicious Node,336,CONFERENCE_8 AIR NODE,Air,0
 Suspicious Node,338,BREAK_ROOM_8 AIR NODE,Air,0
 Suspicious Node,340,MECHANICAL_8 AIR NODE,Air,0
 Suspicious Node,342,STORAGE_8 AIR NODE,Air,0
 Suspicious Node,344,LOBBY_9 AIR NODE,Air,0
 Suspicious Node,346,CONFERENCE_9 AIR NODE,Air,0
 Suspicious Node,348,BREAK_ROOM_9 AIR NODE,Air,0
 Suspicious Node,350,MECHANICAL_9 AIR NODE,Air,0
 Suspicious Node,352,OFFICE_OPEN_9 AIR NODE,Air,0
 Suspicious Node,354,OFFICE_PRIVATE_9 AIR NODE,Air,0
 Suspicious Node,356,STORAGE_9 AIR NODE,Air,0
! ===============================================================
! <#Branch Lists>,<Number of Branch Lists>
 #Branch Lists,51
! <Branch List>,<Branch List Count>,<Branch List Name>,<Loop Name>,<Loop Type>,<Number of Branches>
! <Branch>,<Branch Count>,<Branch Name>,<Loop Name>,<Loop Type>,<Branch Inlet Node Name>,<Branch Outlet Node Name>
 Branch List,1,LOBBY_0_Z1_BRANCHLIST,LOBBY_0_Z1_AIRLOOP,Air,1
   Branch,1,LOBBY_0_Z1_MAINBRANCH,LOBBY_0_Z1_AIRLOOP,Air,LOBBY_0_Z1_SUPPLYINLET,LOBBY_0_Z1_SUPPLYEQUIPMENTOUTLETNODE
 Branch List,2,CONFERENCE_0_Z2_BRANCHLIST,CONFERENCE_0_Z2_AIRLOOP,Air,1
   Branch,1,CONFERENCE_0_Z2_MAINBRANCH,CONFERENCE_0_Z2_AIRLOOP,Air,CONFERENCE_0_Z2_SUPPLYINLET,CONFERENCE_0_Z2_SUPPLYEQUIPMENTOUTLETNODE
 Branch List,3,BREAK_ROOM_0_Z3_BRANCHLIST,BREAK_ROOM_0_Z3_AIRLOOP,Air,1
   Branch,1,BREAK_ROOM_0_Z3_MAINBRANCH,BREAK_ROOM_0_Z3_AIRLOOP,Air,BREAK_ROOM_0_Z3_SUPPLYINLET,BREAK_ROOM_0_Z3_SUPPLYEQUIPMENTOUTLETNODE
 Branch List,4,MECHANICAL_0_Z4_BRANCHLIST,MECHANICAL_0_Z4_AIRLOOP,Air,1
   Branch,1,MECHANICAL_0_Z4_MAINBRANCH,MECHANICAL_0_Z4_AIRLOOP,Air,MECHANICAL_0_Z4_SUPPLYINLET,MECHANICAL_0_Z4_SUPPLYEQUIPMENTOUTLETNODE
 Branch List,5,OFFICE_OPEN_0_Z5_BRANCHLIST,OFFICE_OPEN_0_Z5_AIRLOOP,Air,1
   Branch,1,OFFICE_OPEN_0_Z5_MAINBRANCH,OFFICE_OPEN_0_Z5_AIRLOOP,Air,OFFICE_OPEN_0_Z5_SUPPLYINLET,OFFICE_OPEN_0_Z5_SUPPLYEQUIPMENTOUTLETNODE
 Branch List,6,STORAGE_0_Z6_BRANCHLIST,STORAGE_0_Z6_AIRLOOP,Air,1
   Branch,1,STORAGE_0_Z6_MAINBRANCH,STORAGE_0_Z6_AIRLOOP,Air,STORAGE_0_Z6_SUPPLYINLET,STORAGE_0_Z6_SUPPLYEQUIPMENTOUTLETNODE
 Branch List,7,LOBBY_1_Z7_BRANCHLIST,LOBBY_1_Z7_AIRLOOP,Air,1
   Branch,1,LOBBY_1_Z7_MAINBRANCH,LOBBY_1_Z7_AIRLOOP,Air,LOBBY_1_Z7_SUPPLYINLET,LOBBY_1_Z7_SUPPLYEQUIPMENTOUTLETNODE
 Branch List,8,OFFICE_OPEN_1_Z8_BRANCHLIST,OFFICE_OPEN_1_Z8_AIRLOOP,Air,1
   Branch,1,OFFICE_OPEN_1_Z8_MAINBRANCH,OFFICE_OPEN_1_Z8_AIRLOOP,Air,OFFICE_OPEN_1_Z8_SUPPLYINLET,OFFICE_OPEN_1_Z8_SUPPLYEQUIPMENTOUTLETNODE
 Branch List,9,OFFICE_PRIVATE_1_Z9_BRANCHLIST,OFFICE_PRIVATE_1_Z9_AIRLOOP,Air,1
   Branch,1,OFFICE_PRIVATE_1_Z9_MAINBRANCH,OFFICE_PRIVATE_1_Z9_AIRLOOP,Air,OFFICE_PRIVATE_1_Z9_SUPPLYINLET,OFFICE_PRIVATE_1_Z9_SUPPLYEQUIPMENTOUTLETNODE
 Branch List,10,STORAGE_1_Z10_BRANCHLIST,STORAGE_1_Z10_AIRLOOP,Air,1
   Branch,1,STORAGE_1_Z10_MAINBRANCH,STORAGE_1_Z10_AIRLOOP,Air,STORAGE_1_Z10_SUPPLYINLET,STORAGE_1_Z10_SUPPLYEQUIPMENTOUTLETNODE
 Branch List,11,LOBBY_2_Z11_BRANCHLIST,LOBBY_2_Z11_AIRLOOP,Air,1
   Branch,1,LOBBY_2_Z11_MAINBRANCH,LOBBY_2_Z11_AIRLOOP,Air,LOBBY_2_Z11_SUPPLYINLET,LOBBY_2_Z11_SUPPLYEQUIPMENTOUTLETNODE
 Branch List,12,CONFERENCE_2_Z12_BRANCHLIST,CONFERENCE_2_Z12_AIRLOOP,Air,1
   Branch,1,CONFERENCE_2_Z12_MAINBRANCH,CONFERENCE_2_Z12_AIRLOOP,Air,CONFERENCE_2_Z12_SUPPLYINLET,CONFERENCE_2_Z12_SUPPLYEQUIPMENTOUTLETNODE
 Branch List,13,BREAK_ROOM_2_Z13_BRANCHLIST,BREAK_ROOM_2_Z13_AIRLOOP,Air,1
   Branch,1,BREAK_ROOM_2_Z13_MAINBRANCH,BREAK_ROOM_2_Z13_AIRLOOP,Air,BREAK_ROOM_2_Z13_SUPPLYINLET,BREAK_ROOM_2_Z13_SUPPLYEQUIPMENTOUTLETNODE
 Branch List,14,OFFICE_OPEN_2_Z14_BRANCHLIST,OFFICE_OPEN_2_Z14_AIRLOOP,Air,1
   Branch,1,OFFICE_OPEN_2_Z14_MAINBRANCH,OFFICE_OPEN_2_Z14_AIRLOOP,Air,OFFICE_OPEN_2_Z14_SUPPLYINLET,OFFICE_OPEN_2_Z14_SUPPLYEQUIPMENTOUTLETNODE
 Branch List,15,STORAGE_2_Z15_BRANCHLIST,STORAGE_2_Z15_AIRLOOP,Air,1
   Branch,1,STORAGE_2_Z15_MAINBRANCH,STORAGE_2_Z15_AIRLOOP,Air,STORAGE_2_Z15_SUPPLYINLET,STORAGE_2_Z15_SUPPLYEQUIPMENTOUTLETNODE
 Branch List,16,LOBBY_3_Z16_BRANCHLIST,LOBBY_3_Z16_AIRLOOP,Air,1
   Branch,1,LOBBY_3_Z16_MAINBRANCH,LOBBY_3_Z16_AIRLOOP,Air,LOBBY_3_Z16_SUPPLYINLET,LOBBY_3_Z16_SUPPLYEQUIPMENTOUTLETNODE
 Branch List,17,BREAK_ROOM_3_Z17_BRANCHLIST,BREAK_ROOM_3_Z17_AIRLOOP,Air,1
   Branch,1,BREAK_ROOM_3_Z17_MAINBRANCH,BREAK_ROOM_3_Z17_AIRLOOP,Air,BREAK_ROOM_3_Z17_SUPPLYINLET,BREAK_ROOM_3_Z17_SUPPLYEQUIPMENTOUTLETNODE
 Branch List,18,MECHANICAL_3_Z18_BRANCHLIST,MECHANICAL_3_Z18_AIRLOOP,Air,1
   Branch,1,MECHANICAL_3_Z18_MAINBRANCH,MECHANICAL_3_Z18_AIRLOOP,Air,MECHANICAL_3_Z18_SUPPLYINLET,MECHANICAL_3_Z18_SUPPLYEQUIPMENTOUTLETNODE
 Branch List,19,LOBBY_4_Z19_BRANCHLIST,LOBBY_4_Z19_AIRLOOP,Air,1
   Branch,1,LOBBY_4_Z19_MAINBRANCH,LOBBY_4_Z19_AIRLOOP,Air,LOBBY_4_Z19_SUPPLYINLET,LOBBY_4_Z19_SUPPLYEQUIPMENTOUTLETNODE
 Branch List,20,CONFERENCE_4_Z20_BRANCHLIST,CONFERENCE_4_Z20_AIRLOOP,Air,1
   Branch,1,CONFERENCE_4_Z20_MAINBRANCH,CONFERENCE_4_Z20_AIRLOOP,Air,CONFERENCE_4_Z20_SUPPLYINLET,CONFERENCE_4_Z20_SUPPLYEQUIPMENTOUTLETNODE
 Branch List,21,MECHANICAL_4_Z21_BRANCHLIST,MECHANICAL_4_Z21_AIRLOOP,Air,1
   Branch,1,MECHANICAL_4_Z21_MAINBRANCH,MECHANICAL_4_Z21_AIRLOOP,Air,MECHANICAL_4_Z21_SUPPLYINLET,MECHANICAL_4_Z21_SUPPLYEQUIPMENTOUTLETNODE
 Branch List,22,OFFICE_OPEN_4_Z22_BRANCHLIST,OFFICE_OPEN_4_Z22_AIRLOOP,Air,1
   Branch,1,OFFICE_OPEN_4_Z22_MAINBRANCH,OFFICE_OPEN_4_Z22_AIRLOOP,Air,OFFICE_OPEN_4_Z22_SUPPLYINLET,OFFICE_OPEN_4_Z22_SUPPLYEQUIPMENTOUTLETNODE
 Branch List,23,OFFICE_PRIVATE_4_Z23_BRANCHLIST,OFFICE_PRIVATE_4_Z23_AIRLOOP,Air,1
   Branch,1,OFFICE_PRIVATE_4_Z23_MAINBRANCH,OFFICE_PRIVATE_4_Z23_AIRLOOP,Air,OFFICE_PRIVATE_4_Z23_SUPPLYINLET,OFFICE_PRIVATE_4_Z23_SUPPLYEQUIPMENTOUTLETNODE
 Branch List,24,STORAGE_4_Z24_BRANCHLIST,STORAGE_4_Z24_AIRLOOP,Air,1
   Branch,1,STORAGE_4_Z24_MAINBRANCH,STORAGE_4_Z24_AIRLOOP,Air,STORAGE_4_Z24_SUPPLYINLET,STORAGE_4_Z24_SUPPLYEQUIPMENTOUTLETNODE
 Branch List,25,LOBBY_5_Z25_BRANCHLIST,LOBBY_5_Z25_AIRLOOP,Air,1
   Branch,1,LOBBY_5_Z25_MAINBRANCH,LOBBY_5_Z25_AIRLOOP,Air,LOBBY_5_Z25_SUPPLYINLET,LOBBY_5_Z25_SUPPLYEQUIPMENTOUTLETNODE
 Branch List,26,CONFERENCE_5_Z26_BRANCHLIST,CONFERENCE_5_Z26_AIRLOOP,Air,1
   Branch,1,CONFERENCE_5_Z26_MAINBRANCH,CONFERENCE_5_Z26_AIRLOOP,Air,CONFERENCE_5_Z26_SUPPLYINLET,CONFERENCE_5_Z26_SUPPLYEQUIPMENTOUTLETNODE
 Branch List,27,MECHANICAL_5_Z27_BRANCHLIST,MECHANICAL_5_Z27_AIRLOOP,Air,1
   Branch,1,MECHANICAL_5_Z27_MAINBRANCH,MECHANICAL_5_Z27_AIRLOOP,Air,MECHANICAL_5_Z27_SUPPLYINLET,MECHANICAL_5_Z27_SUPPLYEQUIPMENTOUTLETNODE
 Branch List,28,OFFICE_PRIVATE_5_Z28_BRANCHLIST,OFFICE_PRIVATE_5_Z28_AIRLOOP,Air,1
   Branch,1,OFFICE_PRIVATE_5_Z28_MAINBRANCH,OFFICE_PRIVATE_5_Z28_AIRLOOP,Air,OFFICE_PRIVATE_5_Z28_SUPPLYINLET,OFFICE_PRIVATE_5_Z28_SUPPLYEQUIPMENTOUTLETNODE
 Branch List,29,STORAGE_5_Z29_BRANCHLIST,STORAGE_5_Z29_AIRLOOP,Air,1
   Branch,1,STORAGE_5_Z29_MAINBRANCH,STORAGE_5_Z29_AIRLOOP,Air,STORAGE_5_Z29_SUPPLYINLET,STORAGE_5_Z29_SUPPLYEQUIPMENTOUTLETNODE
 Branch List,30,LOBBY_6_Z30_BRANCHLIST,LOBBY_6_Z30_AIRLOOP,Air,1
   Branch,1,LOBBY_6_Z30_MAINBRANCH,LOBBY_6_Z30_AIRLOOP,Air,LOBBY_6_Z30_SUPPLYINLET,LOBBY_6_Z30_SUPPLYEQUIPMENTOUTLETNODE
 Branch List,31,CONFERENCE_6_Z31_BRANCHLIST,CONFERENCE_6_Z31_AIRLOOP,Air,1
   Branch,1,CONFERENCE_6_Z31_MAINBRANCH,CONFERENCE_6_Z31_AIRLOOP,Air,CONFERENCE_6_Z31_SUPPLYINLET,CONFERENCE_6_Z31_SUPPLYEQUIPMENTOUTLETNODE
 Branch List,32,BREAK_ROOM_6_Z32_BRANCHLIST,BREAK_ROOM_6_Z32_AIRLOOP,Air,1
   Branch,1,BREAK_ROOM_6_Z32_MAINBRANCH,BREAK_ROOM_6_Z32_AIRLOOP,Air,BREAK_ROOM_6_Z32_SUPPLYINLET,BREAK_ROOM_6_Z32_SUPPLYEQUIPMENTOUTLETNODE
 Branch List,33,OFFICE_OPEN_6_Z33_BRANCHLIST,OFFICE_OPEN_6_Z33_AIRLOOP,Air,1
   Branch,1,OFFICE_OPEN_6_Z33_MAINBRANCH,OFFICE_OPEN_6_Z33_AIRLOOP,Air,OFFICE_OPEN_6_Z33_SUPPLYINLET,OFFICE_OPEN_6_Z33_SUPPLYEQUIPMENTOUTLETNODE
 Branch List,34,OFFICE_PRIVATE_6_Z34_BRANCHLIST,OFFICE_PRIVATE_6_Z34_AIRLOOP,Air,1
   Branch,1,OFFICE_PRIVATE_6_Z34_MAINBRANCH,OFFICE_PRIVATE_6_Z34_AIRLOOP,Air,OFFICE_PRIVATE_6_Z34_SUPPLYINLET,OFFICE_PRIVATE_6_Z34_SUPPLYEQUIPMENTOUTLETNODE
 Branch List,35,STORAGE_6_Z35_BRANCHLIST,STORAGE_6_Z35_AIRLOOP,Air,1
   Branch,1,STORAGE_6_Z35_MAINBRANCH,STORAGE_6_Z35_AIRLOOP,Air,STORAGE_6_Z35_SUPPLYINLET,STORAGE_6_Z35_SUPPLYEQUIPMENTOUTLETNODE
 Branch List,36,LOBBY_7_Z36_BRANCHLIST,LOBBY_7_Z36_AIRLOOP,Air,1
   Branch,1,LOBBY_7_Z36_MAINBRANCH,LOBBY_7_Z36_AIRLOOP,Air,LOBBY_7_Z36_SUPPLYINLET,LOBBY_7_Z36_SUPPLYEQUIPMENTOUTLETNODE
 Branch List,37,CONFERENCE_7_Z37_BRANCHLIST,CONFERENCE_7_Z37_AIRLOOP,Air,1
   Branch,1,CONFERENCE_7_Z37_MAINBRANCH,CONFERENCE_7_Z37_AIRLOOP,Air,CONFERENCE_7_Z37_SUPPLYINLET,CONFERENCE_7_Z37_SUPPLYEQUIPMENTOUTLETNODE
 Branch List,38,MECHANICAL_7_Z38_BRANCHLIST,MECHANICAL_7_Z38_AIRLOOP,Air,1
   Branch,1,MECHANICAL_7_Z38_MAINBRANCH,MECHANICAL_7_Z38_AIRLOOP,Air,MECHANICAL_7_Z38_SUPPLYINLET,MECHANICAL_7_Z38_SUPPLYEQUIPMENTOUTLETNODE
 Branch List,39,OFFICE_OPEN_7_Z39_BRANCHLIST,OFFICE_OPEN_7_Z39_AIRLOOP,Air,1
   Branch,1,OFFICE_OPEN_7_Z39_MAINBRANCH,OFFICE_OPEN_7_Z39_AIRLOOP,Air,OFFICE_OPEN_7_Z39_SUPPLYINLET,OFFICE_OPEN_7_Z39_SUPPLYEQUIPMENTOUTLETNODE
 Branch List,40,STORAGE_7_Z40_BRANCHLIST,STORAGE_7_Z40_AIRLOOP,Air,1
   Branch,1,STORAGE_7_Z40_MAINBRANCH,STORAGE_7_Z40_AIRLOOP,Air,STORAGE_7_Z40_SUPPLYINLET,STORAGE_7_Z40_SUPPLYEQUIPMENTOUTLETNODE
 Branch List,41,CONFERENCE_8_Z41_BRANCHLIST,CONFERENCE_8_Z41_AIRLOOP,Air,1
   Branch,1,CONFERENCE_8_Z41_MAINBRANCH,CONFERENCE_8_Z41_AIRLOOP,Air,CONFERENCE_8_Z41_SUPPLYINLET,CONFERENCE_8_Z41_SUPPLYEQUIPMENTOUTLETNODE
 Branch List,42,BREAK_ROOM_8_Z42_BRANCHLIST,BREAK_ROOM_8_Z42_AIRLOOP,Air,1
   Branch,1,BREAK_ROOM_8_Z42_MAINBRANCH,BREAK_ROOM_8_Z42_AIRLOOP,Air,BREAK_ROOM_8_Z42_SUPPLYINLET,BREAK_ROOM_8_Z42_SUPPLYEQUIPMENTOUTLETNODE
 Branch List,43,MECHANICAL_8_Z43_BRANCHLIST,MECHANICAL_8_Z43_AIRLOOP,Air,1
   Branch,1,MECHANICAL_8_Z43_MAINBRANCH,MECHANICAL_8_Z43_AIRLOOP,Air,MECHANICAL_8_Z43_SUPPLYINLET,MECHANICAL_8_Z43_SUPPLYEQUIPMENTOUTLETNODE
 Branch List,44,STORAGE_8_Z44_BRANCHLIST,STORAGE_8_Z44_AIRLOOP,Air,1
   Branch,1,STORAGE_8_Z44_MAINBRANCH,STORAGE_8_Z44_AIRLOOP,Air,STORAGE_8_Z44_SUPPLYINLET,STORAGE_8_Z44_SUPPLYEQUIPMENTOUTLETNODE
 Branch List,45,LOBBY_9_Z45_BRANCHLIST,LOBBY_9_Z45_AIRLOOP,Air,1
   Branch,1,LOBBY_9_Z45_MAINBRANCH,LOBBY_9_Z45_AIRLOOP,Air,LOBBY_9_Z45_SUPPLYINLET,LOBBY_9_Z45_SUPPLYEQUIPMENTOUTLETNODE
 Branch List,46,CONFERENCE_9_Z46_BRANCHLIST,CONFERENCE_9_Z46_AIRLOOP,Air,1
   Branch,1,CONFERENCE_9_Z46_MAINBRANCH,CONFERENCE_9_Z46_AIRLOOP,Air,CONFERENCE_9_Z46_SUPPLYINLET,CONFERENCE_9_Z46_SUPPLYEQUIPMENTOUTLETNODE
 Branch List,47,BREAK_ROOM_9_Z47_BRANCHLIST,BREAK_ROOM_9_Z47_AIRLOOP,Air,1
   Branch,1,BREAK_ROOM_9_Z47_MAINBRANCH,BREAK_ROOM_9_Z47_AIRLOOP,Air,BREAK_ROOM_9_Z47_SUPPLYINLET,BREAK_ROOM_9_Z47_SUPPLYEQUIPMENTOUTLETNODE
 Branch List,48,MECHANICAL_9_Z48_BRANCHLIST,MECHANICAL_9_Z48_AIRLOOP,Air,1
   Branch,1,MECHANICAL_9_Z48_MAINBRANCH,MECHANICAL_9_Z48_AIRLOOP,Air,MECHANICAL_9_Z48_SUPPLYINLET,MECHANICAL_9_Z48_SUPPLYEQUIPMENTOUTLETNODE
 Branch List,49,OFFICE_OPEN_9_Z49_BRANCHLIST,OFFICE_OPEN_9_Z49_AIRLOOP,Air,1
   Branch,1,OFFICE_OPEN_9_Z49_MAINBRANCH,OFFICE_OPEN_9_Z49_AIRLOOP,Air,OFFICE_OPEN_9_Z49_SUPPLYINLET,OFFICE_OPEN_9_Z49_SUPPLYEQUIPMENTOUTLETNODE
 Branch List,50,OFFICE_PRIVATE_9_Z50_BRANCHLIST,OFFICE_PRIVATE_9_Z50_AIRLOOP,Air,1
   Branch,1,OFFICE_PRIVATE_9_Z50_MAINBRANCH,OFFICE_PRIVATE_9_Z50_AIRLOOP,Air,OFFICE_PRIVATE_9_Z50_SUPPLYINLET,OFFICE_PRIVATE_9_Z50_SUPPLYEQUIPMENTOUTLETNODE
 Branch List,51,STORAGE_9_Z51_BRANCHLIST,STORAGE_9_Z51_AIRLOOP,Air,1
   Branch,1,STORAGE_9_Z51_MAINBRANCH,STORAGE_9_Z51_AIRLOOP,Air,STORAGE_9_Z51_SUPPLYINLET,STORAGE_9_Z51_SUPPLYEQUIPMENTOUTLETNODE
! ===============================================================
! <#Supply Air Paths>,<Number of Supply Air Paths>
 #Supply Air Paths,51
! <Supply Air Path>,<Supply Air Path Count>,<Supply Air Path Name>,<AirLoopHVAC Name>
! <#Components on Supply Air Path>,<Number of Components>
! <Supply Air Path Component>,<Component Count>,<Component Type>,<Component Name>,<AirLoopHVAC Name>
! <#Outlet Nodes on Supply Air Path Component>,<Number of Nodes>
! <Supply Air Path Component Nodes>,<Node Count>,<Component Type>,<Component Name>,<Inlet Node Name>,<Outlet Node Name>,<AirLoopHVAC Name>
 Supply Air Path,1,LOBBY_0_Z1,LOBBY_0_Z1_AIRLOOP
   #Components on Supply Air Path,1
   Supply Air Path Component,1,AIRLOOPHVAC:ZONESPLITTER,LOBBY_0_Z1_SUPPLYSPLITTER,LOBBY_0_Z1_AIRLOOP
     #Outlet Nodes on Supply Air Path Component,1
     Supply Air Path Component Nodes,1,AIRLOOPHVAC:ZONESPLITTER,LOBBY_0_Z1_SUPPLYSPLITTER,LOBBY_0_Z1_ZONEEQUIPMENTINLET,LOBBY_0_Z1_TERMINALINLET,LOBBY_0_Z1_AIRLOOP
! <#Nodes on Supply Air Path>,<Number of Nodes>
! <Supply Air Path Node>,<Node Type>,<Node Count>,<Node Name>,<AirLoopHVAC Name>
#Nodes on Supply Air Path,2
   Supply Air Path Node,Inlet Node,1,LOBBY_0_Z1_ZONEEQUIPMENTINLET,LOBBY_0_Z1_AIRLOOP
   Supply Air Path Node,Outlet Node,2,LOBBY_0_Z1_TERMINALINLET,LOBBY_0_Z1_AIRLOOP
 Supply Air Path,2,CONFERENCE_0_Z2,CONFERENCE_0_Z2_AIRLOOP
   #Components on Supply Air Path,1
   Supply Air Path Component,1,AIRLOOPHVAC:ZONESPLITTER,CONFERENCE_0_Z2_SUPPLYSPLITTER,CONFERENCE_0_Z2_AIRLOOP
     #Outlet Nodes on Supply Air Path Component,1
     Supply Air Path Component Nodes,1,AIRLOOPHVAC:ZONESPLITTER,CONFERENCE_0_Z2_SUPPLYSPLITTER,CONFERENCE_0_Z2_ZONEEQUIPMENTINLET,CONFERENCE_0_Z2_TERMINALINLET,CONFERENCE_0_Z2_AIRLOOP
! <#Nodes on Supply Air Path>,<Number of Nodes>
! <Supply Air Path Node>,<Node Type>,<Node Count>,<Node Name>,<AirLoopHVAC Name>
#Nodes on Supply Air Path,2
   Supply Air Path Node,Inlet Node,1,CONFERENCE_0_Z2_ZONEEQUIPMENTINLET,CONFERENCE_0_Z2_AIRLOOP
   Supply Air Path Node,Outlet Node,2,CONFERENCE_0_Z2_TERMINALINLET,CONFERENCE_0_Z2_AIRLOOP
 Supply Air Path,3,BREAK_ROOM_0_Z3,BREAK_ROOM_0_Z3_AIRLOOP
   #Components on Supply Air Path,1
   Supply Air Path Component,1,AIRLOOPHVAC:ZONESPLITTER,BREAK_ROOM_0_Z3_SUPPLYSPLITTER,BREAK_ROOM_0_Z3_AIRLOOP
     #Outlet Nodes on Supply Air Path Component,1
     Supply Air Path Component Nodes,1,AIRLOOPHVAC:ZONESPLITTER,BREAK_ROOM_0_Z3_SUPPLYSPLITTER,BREAK_ROOM_0_Z3_ZONEEQUIPMENTINLET,BREAK_ROOM_0_Z3_TERMINALINLET,BREAK_ROOM_0_Z3_AIRLOOP
! <#Nodes on Supply Air Path>,<Number of Nodes>
! <Supply Air Path Node>,<Node Type>,<Node Count>,<Node Name>,<AirLoopHVAC Name>
#Nodes on Supply Air Path,2
   Supply Air Path Node,Inlet Node,1,BREAK_ROOM_0_Z3_ZONEEQUIPMENTINLET,BREAK_ROOM_0_Z3_AIRLOOP
   Supply Air Path Node,Outlet Node,2,BREAK_ROOM_0_Z3_TERMINALINLET,BREAK_ROOM_0_Z3_AIRLOOP
 Supply Air Path,4,MECHANICAL_0_Z4,MECHANICAL_0_Z4_AIRLOOP
   #Components on Supply Air Path,1
   Supply Air Path Component,1,AIRLOOPHVAC:ZONESPLITTER,MECHANICAL_0_Z4_SUPPLYSPLITTER,MECHANICAL_0_Z4_AIRLOOP
     #Outlet Nodes on Supply Air Path Component,1
     Supply Air Path Component Nodes,1,AIRLOOPHVAC:ZONESPLITTER,MECHANICAL_0_Z4_SUPPLYSPLITTER,MECHANICAL_0_Z4_ZONEEQUIPMENTINLET,MECHANICAL_0_Z4_TERMINALINLET,MECHANICAL_0_Z4_AIRLOOP
! <#Nodes on Supply Air Path>,<Number of Nodes>
! <Supply Air Path Node>,<Node Type>,<Node Count>,<Node Name>,<AirLoopHVAC Name>
#Nodes on Supply Air Path,2
   Supply Air Path Node,Inlet Node,1,MECHANICAL_0_Z4_ZONEEQUIPMENTINLET,MECHANICAL_0_Z4_AIRLOOP
   Supply Air Path Node,Outlet Node,2,MECHANICAL_0_Z4_TERMINALINLET,MECHANICAL_0_Z4_AIRLOOP
 Supply Air Path,5,OFFICE_OPEN_0_Z5,OFFICE_OPEN_0_Z5_AIRLOOP
   #Components on Supply Air Path,1
   Supply Air Path Component,1,AIRLOOPHVAC:ZONESPLITTER,OFFICE_OPEN_0_Z5_SUPPLYSPLITTER,OFFICE_OPEN_0_Z5_AIRLOOP
     #Outlet Nodes on Supply Air Path Component,1
     Supply Air Path Component Nodes,1,AIRLOOPHVAC:ZONESPLITTER,OFFICE_OPEN_0_Z5_SUPPLYSPLITTER,OFFICE_OPEN_0_Z5_ZONEEQUIPMENTINLET,OFFICE_OPEN_0_Z5_TERMINALINLET,OFFICE_OPEN_0_Z5_AIRLOOP
! <#Nodes on Supply Air Path>,<Number of Nodes>
! <Supply Air Path Node>,<Node Type>,<Node Count>,<Node Name>,<AirLoopHVAC Name>
#Nodes on Supply Air Path,2
   Supply Air Path Node,Inlet Node,1,OFFICE_OPEN_0_Z5_ZONEEQUIPMENTINLET,OFFICE_OPEN_0_Z5_AIRLOOP
   Supply Air Path Node,Outlet Node,2,OFFICE_OPEN_0_Z5_TERMINALINLET,OFFICE_OPEN_0_Z5_AIRLOOP
 Supply Air Path,6,STORAGE_0_Z6,STORAGE_0_Z6_AIRLOOP
   #Components on Supply Air Path,1
   Supply Air Path Component,1,AIRLOOPHVAC:ZONESPLITTER,STORAGE_0_Z6_SUPPLYSPLITTER,STORAGE_0_Z6_AIRLOOP
     #Outlet Nodes on Supply Air Path Component,1
     Supply Air Path Component Nodes,1,AIRLOOPHVAC:ZONESPLITTER,STORAGE_0_Z6_SUPPLYSPLITTER,STORAGE_0_Z6_ZONEEQUIPMENTINLET,STORAGE_0_Z6_TERMINALINLET,STORAGE_0_Z6_AIRLOOP
! <#Nodes on Supply Air Path>,<Number of Nodes>
! <Supply Air Path Node>,<Node Type>,<Node Count>,<Node Name>,<AirLoopHVAC Name>
#Nodes on Supply Air Path,2
   Supply Air Path Node,Inlet Node,1,STORAGE_0_Z6_ZONEEQUIPMENTINLET,STORAGE_0_Z6_AIRLOOP
   Supply Air Path Node,Outlet Node,2,STORAGE_0_Z6_TERMINALINLET,STORAGE_0_Z6_AIRLOOP
 Supply Air Path,7,LOBBY_1_Z7,LOBBY_1_Z7_AIRLOOP
   #Components on Supply Air Path,1
   Supply Air Path Component,1,AIRLOOPHVAC:ZONESPLITTER,LOBBY_1_Z7_SUPPLYSPLITTER,LOBBY_1_Z7_AIRLOOP
     #Outlet Nodes on Supply Air Path Component,1
     Supply Air Path Component Nodes,1,AIRLOOPHVAC:ZONESPLITTER,LOBBY_1_Z7_SUPPLYSPLITTER,LOBBY_1_Z7_ZONEEQUIPMENTINLET,LOBBY_1_Z7_TERMINALINLET,LOBBY_1_Z7_AIRLOOP
! <#Nodes on Supply Air Path>,<Number of Nodes>
! <Supply Air Path Node>,<Node Type>,<Node Count>,<Node Name>,<AirLoopHVAC Name>
#Nodes on Supply Air Path,2
   Supply Air Path Node,Inlet Node,1,LOBBY_1_Z7_ZONEEQUIPMENTINLET,LOBBY_1_Z7_AIRLOOP
   Supply Air Path Node,Outlet Node,2,LOBBY_1_Z7_TERMINALINLET,LOBBY_1_Z7_AIRLOOP
 Supply Air Path,8,OFFICE_OPEN_1_Z8,OFFICE_OPEN_1_Z8_AIRLOOP
   #Components on Supply Air Path,1
   Supply Air Path Component,1,AIRLOOPHVAC:ZONESPLITTER,OFFICE_OPEN_1_Z8_SUPPLYSPLITTER,OFFICE_OPEN_1_Z8_AIRLOOP
     #Outlet Nodes on Supply Air Path Component,1
     Supply Air Path Component Nodes,1,AIRLOOPHVAC:ZONESPLITTER,OFFICE_OPEN_1_Z8_SUPPLYSPLITTER,OFFICE_OPEN_1_Z8_ZONEEQUIPMENTINLET,OFFICE_OPEN_1_Z8_TERMINALINLET,OFFICE_OPEN_1_Z8_AIRLOOP
! <#Nodes on Supply Air Path>,<Number of Nodes>
! <Supply Air Path Node>,<Node Type>,<Node Count>,<Node Name>,<AirLoopHVAC Name>
#Nodes on Supply Air Path,2
   Supply Air Path Node,Inlet Node,1,OFFICE_OPEN_1_Z8_ZONEEQUIPMENTINLET,OFFICE_OPEN_1_Z8_AIRLOOP
   Supply Air Path Node,Outlet Node,2,OFFICE_OPEN_1_Z8_TERMINALINLET,OFFICE_OPEN_1_Z8_AIRLOOP
 Supply Air Path,9,OFFICE_PRIVATE_1_Z9,OFFICE_PRIVATE_1_Z9_AIRLOOP
   #Components on Supply Air Path,1
   Supply Air Path Component,1,AIRLOOPHVAC:ZONESPLITTER,OFFICE_PRIVATE_1_Z9_SUPPLYSPLITTER,OFFICE_PRIVATE_1_Z9_AIRLOOP
     #Outlet Nodes on Supply Air Path Component,1
     Supply Air Path Component Nodes,1,AIRLOOPHVAC:ZONESPLITTER,OFFICE_PRIVATE_1_Z9_SUPPLYSPLITTER,OFFICE_PRIVATE_1_Z9_ZONEEQUIPMENTINLET,OFFICE_PRIVATE_1_Z9_TERMINALINLET,OFFICE_PRIVATE_1_Z9_AIRLOOP
! <#Nodes on Supply Air Path>,<Number of Nodes>
! <Supply Air Path Node>,<Node Type>,<Node Count>,<Node Name>,<AirLoopHVAC Name>
#Nodes on Supply Air Path,2
   Supply Air Path Node,Inlet Node,1,OFFICE_PRIVATE_1_Z9_ZONEEQUIPMENTINLET,OFFICE_PRIVATE_1_Z9_AIRLOOP
   Supply Air Path Node,Outlet Node,2,OFFICE_PRIVATE_1_Z9_TERMINALINLET,OFFICE_PRIVATE_1_Z9_AIRLOOP
 Supply Air Path,10,STORAGE_1_Z10,STORAGE_1_Z10_AIRLOOP
   #Components on Supply Air Path,1
   Supply Air Path Component,1,AIRLOOPHVAC:ZONESPLITTER,STORAGE_1_Z10_SUPPLYSPLITTER,STORAGE_1_Z10_AIRLOOP
     #Outlet Nodes on Supply Air Path Component,1
     Supply Air Path Component Nodes,1,AIRLOOPHVAC:ZONESPLITTER,STORAGE_1_Z10_SUPPLYSPLITTER,STORAGE_1_Z10_ZONEEQUIPMENTINLET,STORAGE_1_Z10_TERMINALINLET,STORAGE_1_Z10_AIRLOOP
! <#Nodes on Supply Air Path>,<Number of Nodes>
! <Supply Air Path Node>,<Node Type>,<Node Count>,<Node Name>,<AirLoopHVAC Name>
#Nodes on Supply Air Path,2
   Supply Air Path Node,Inlet Node,1,STORAGE_1_Z10_ZONEEQUIPMENTINLET,STORAGE_1_Z10_AIRLOOP
   Supply Air Path Node,Outlet Node,2,STORAGE_1_Z10_TERMINALINLET,STORAGE_1_Z10_AIRLOOP
 Supply Air Path,11,LOBBY_2_Z11,LOBBY_2_Z11_AIRLOOP
   #Components on Supply Air Path,1
   Supply Air Path Component,1,AIRLOOPHVAC:ZONESPLITTER,LOBBY_2_Z11_SUPPLYSPLITTER,LOBBY_2_Z11_AIRLOOP
     #Outlet Nodes on Supply Air Path Component,1
     Supply Air Path Component Nodes,1,AIRLOOPHVAC:ZONESPLITTER,LOBBY_2_Z11_SUPPLYSPLITTER,LOBBY_2_Z11_ZONEEQUIPMENTINLET,LOBBY_2_Z11_TERMINALINLET,LOBBY_2_Z11_AIRLOOP
! <#Nodes on Supply Air Path>,<Number of Nodes>
! <Supply Air Path Node>,<Node Type>,<Node Count>,<Node Name>,<AirLoopHVAC Name>
#Nodes on Supply Air Path,2
   Supply Air Path Node,Inlet Node,1,LOBBY_2_Z11_ZONEEQUIPMENTINLET,LOBBY_2_Z11_AIRLOOP
   Supply Air Path Node,Outlet Node,2,LOBBY_2_Z11_TERMINALINLET,LOBBY_2_Z11_AIRLOOP
 Supply Air Path,12,CONFERENCE_2_Z12,CONFERENCE_2_Z12_AIRLOOP
   #Components on Supply Air Path,1
   Supply Air Path Component,1,AIRLOOPHVAC:ZONESPLITTER,CONFERENCE_2_Z12_SUPPLYSPLITTER,CONFERENCE_2_Z12_AIRLOOP
     #Outlet Nodes on Supply Air Path Component,1
     Supply Air Path Component Nodes,1,AIRLOOPHVAC:ZONESPLITTER,CONFERENCE_2_Z12_SUPPLYSPLITTER,CONFERENCE_2_Z12_ZONEEQUIPMENTINLET,CONFERENCE_2_Z12_TERMINALINLET,CONFERENCE_2_Z12_AIRLOOP
! <#Nodes on Supply Air Path>,<Number of Nodes>
! <Supply Air Path Node>,<Node Type>,<Node Count>,<Node Name>,<AirLoopHVAC Name>
#Nodes on Supply Air Path,2
   Supply Air Path Node,Inlet Node,1,CONFERENCE_2_Z12_ZONEEQUIPMENTINLET,CONFERENCE_2_Z12_AIRLOOP
   Supply Air Path Node,Outlet Node,2,CONFERENCE_2_Z12_TERMINALINLET,CONFERENCE_2_Z12_AIRLOOP
 Supply Air Path,13,BREAK_ROOM_2_Z13,BREAK_ROOM_2_Z13_AIRLOOP
   #Components on Supply Air Path,1
   Supply Air Path Component,1,AIRLOOPHVAC:ZONESPLITTER,BREAK_ROOM_2_Z13_SUPPLYSPLITTER,BREAK_ROOM_2_Z13_AIRLOOP
     #Outlet Nodes on Supply Air Path Component,1
     Supply Air Path Component Nodes,1,AIRLOOPHVAC:ZONESPLITTER,BREAK_ROOM_2_Z13_SUPPLYSPLITTER,BREAK_ROOM_2_Z13_ZONEEQUIPMENTINLET,BREAK_ROOM_2_Z13_TERMINALINLET,BREAK_ROOM_2_Z13_AIRLOOP
! <#Nodes on Supply Air Path>,<Number of Nodes>
! <Supply Air Path Node>,<Node Type>,<Node Count>,<Node Name>,<AirLoopHVAC Name>
#Nodes on Supply Air Path,2
   Supply Air Path Node,Inlet Node,1,BREAK_ROOM_2_Z13_ZONEEQUIPMENTINLET,BREAK_ROOM_2_Z13_AIRLOOP
   Supply Air Path Node,Outlet Node,2,BREAK_ROOM_2_Z13_TERMINALINLET,BREAK_ROOM_2_Z13_AIRLOOP
 Supply Air Path,14,OFFICE_OPEN_2_Z14,OFFICE_OPEN_2_Z14_AIRLOOP
   #Components on Supply Air Path,1
   Supply Air Path Component,1,AIRLOOPHVAC:ZONESPLITTER,OFFICE_OPEN_2_Z14_SUPPLYSPLITTER,OFFICE_OPEN_2_Z14_AIRLOOP
     #Outlet Nodes on Supply Air Path Component,1
     Supply Air Path Component Nodes,1,AIRLOOPHVAC:ZONESPLITTER,OFFICE_OPEN_2_Z14_SUPPLYSPLITTER,OFFICE_OPEN_2_Z14_ZONEEQUIPMENTINLET,OFFICE_OPEN_2_Z14_TERMINALINLET,OFFICE_OPEN_2_Z14_AIRLOOP
! <#Nodes on Supply Air Path>,<Number of Nodes>
! <Supply Air Path Node>,<Node Type>,<Node Count>,<Node Name>,<AirLoopHVAC Name>
#Nodes on Supply Air Path,2
   Supply Air Path Node,Inlet Node,1,OFFICE_OPEN_2_Z14_ZONEEQUIPMENTINLET,OFFICE_OPEN_2_Z14_AIRLOOP
   Supply Air Path Node,Outlet Node,2,OFFICE_OPEN_2_Z14_TERMINALINLET,OFFICE_OPEN_2_Z14_AIRLOOP
 Supply Air Path,15,STORAGE_2_Z15,STORAGE_2_Z15_AIRLOOP
   #Components on Supply Air Path,1
   Supply Air Path Component,1,AIRLOOPHVAC:ZONESPLITTER,STORAGE_2_Z15_SUPPLYSPLITTER,STORAGE_2_Z15_AIRLOOP
     #Outlet Nodes on Supply Air Path Component,1
     Supply Air Path Component Nodes,1,AIRLOOPHVAC:ZONESPLITTER,STORAGE_2_Z15_SUPPLYSPLITTER,STORAGE_2_Z15_ZONEEQUIPMENTINLET,STORAGE_2_Z15_TERMINALINLET,STORAGE_2_Z15_AIRLOOP
! <#Nodes on Supply Air Path>,<Number of Nodes>
! <Supply Air Path Node>,<Node Type>,<Node Count>,<Node Name>,<AirLoopHVAC Name>
#Nodes on Supply Air Path,2
   Supply Air Path Node,Inlet Node,1,STORAGE_2_Z15_ZONEEQUIPMENTINLET,STORAGE_2_Z15_AIRLOOP
   Supply Air Path Node,Outlet Node,2,STORAGE_2_Z15_TERMINALINLET,STORAGE_2_Z15_AIRLOOP
 Supply Air Path,16,LOBBY_3_Z16,LOBBY_3_Z16_AIRLOOP
   #Components on Supply Air Path,1
   Supply Air Path Component,1,AIRLOOPHVAC:ZONESPLITTER,LOBBY_3_Z16_SUPPLYSPLITTER,LOBBY_3_Z16_AIRLOOP
     #Outlet Nodes on Supply Air Path Component,1
     Supply Air Path Component Nodes,1,AIRLOOPHVAC:ZONESPLITTER,LOBBY_3_Z16_SUPPLYSPLITTER,LOBBY_3_Z16_ZONEEQUIPMENTINLET,LOBBY_3_Z16_TERMINALINLET,LOBBY_3_Z16_AIRLOOP
! <#Nodes on Supply Air Path>,<Number of Nodes>
! <Supply Air Path Node>,<Node Type>,<Node Count>,<Node Name>,<AirLoopHVAC Name>
#Nodes on Supply Air Path,2
   Supply Air Path Node,Inlet Node,1,LOBBY_3_Z16_ZONEEQUIPMENTINLET,LOBBY_3_Z16_AIRLOOP
   Supply Air Path Node,Outlet Node,2,LOBBY_3_Z16_TERMINALINLET,LOBBY_3_Z16_AIRLOOP
 Supply Air Path,17,BREAK_ROOM_3_Z17,BREAK_ROOM_3_Z17_AIRLOOP
   #Components on Supply Air Path,1
   Supply Air Path Component,1,AIRLOOPHVAC:ZONESPLITTER,BREAK_ROOM_3_Z17_SUPPLYSPLITTER,BREAK_ROOM_3_Z17_AIRLOOP
     #Outlet Nodes on Supply Air Path Component,1
     Supply Air Path Component Nodes,1,AIRLOOPHVAC:ZONESPLITTER,BREAK_ROOM_3_Z17_SUPPLYSPLITTER,BREAK_ROOM_3_Z17_ZONEEQUIPMENTINLET,BREAK_ROOM_3_Z17_TERMINALINLET,BREAK_ROOM_3_Z17_AIRLOOP
! <#Nodes on Supply Air Path>,<Number of Nodes>
! <Supply Air Path Node>,<Node Type>,<Node Count>,<Node Name>,<AirLoopHVAC Name>
#Nodes on Supply Air Path,2
   Supply Air Path Node,Inlet Node,1,BREAK_ROOM_3_Z17_ZONEEQUIPMENTINLET,BREAK_ROOM_3_Z17_AIRLOOP
   Supply Air Path Node,Outlet Node,2,BREAK_ROOM_3_Z17_TERMINALINLET,BREAK_ROOM_3_Z17_AIRLOOP
 Supply Air Path,18,MECHANICAL_3_Z18,MECHANICAL_3_Z18_AIRLOOP
   #Components on Supply Air Path,1
   Supply Air Path Component,1,AIRLOOPHVAC:ZONESPLITTER,MECHANICAL_3_Z18_SUPPLYSPLITTER,MECHANICAL_3_Z18_AIRLOOP
     #Outlet Nodes on Supply Air Path Component,1
     Supply Air Path Component Nodes,1,AIRLOOPHVAC:ZONESPLITTER,MECHANICAL_3_Z18_SUPPLYSPLITTER,MECHANICAL_3_Z18_ZONEEQUIPMENTINLET,MECHANICAL_3_Z18_TERMINALINLET,MECHANICAL_3_Z18_AIRLOOP
! <#Nodes on Supply Air Path>,<Number of Nodes>
! <Supply Air Path Node>,<Node Type>,<Node Count>,<Node Name>,<AirLoopHVAC Name>
#Nodes on Supply Air Path,2
   Supply Air Path Node,Inlet Node,1,MECHANICAL_3_Z18_ZONEEQUIPMENTINLET,MECHANICAL_3_Z18_AIRLOOP
   Supply Air Path Node,Outlet Node,2,MECHANICAL_3_Z18_TERMINALINLET,MECHANICAL_3_Z18_AIRLOOP
 Supply Air Path,19,LOBBY_4_Z19,LOBBY_4_Z19_AIRLOOP
   #Components on Supply Air Path,1
   Supply Air Path Component,1,AIRLOOPHVAC:ZONESPLITTER,LOBBY_4_Z19_SUPPLYSPLITTER,LOBBY_4_Z19_AIRLOOP
     #Outlet Nodes on Supply Air Path Component,1
     Supply Air Path Component Nodes,1,AIRLOOPHVAC:ZONESPLITTER,LOBBY_4_Z19_SUPPLYSPLITTER,LOBBY_4_Z19_ZONEEQUIPMENTINLET,LOBBY_4_Z19_TERMINALINLET,LOBBY_4_Z19_AIRLOOP
! <#Nodes on Supply Air Path>,<Number of Nodes>
! <Supply Air Path Node>,<Node Type>,<Node Count>,<Node Name>,<AirLoopHVAC Name>
#Nodes on Supply Air Path,2
   Supply Air Path Node,Inlet Node,1,LOBBY_4_Z19_ZONEEQUIPMENTINLET,LOBBY_4_Z19_AIRLOOP
   Supply Air Path Node,Outlet Node,2,LOBBY_4_Z19_TERMINALINLET,LOBBY_4_Z19_AIRLOOP
 Supply Air Path,20,CONFERENCE_4_Z20,CONFERENCE_4_Z20_AIRLOOP
   #Components on Supply Air Path,1
   Supply Air Path Component,1,AIRLOOPHVAC:ZONESPLITTER,CONFERENCE_4_Z20_SUPPLYSPLITTER,CONFERENCE_4_Z20_AIRLOOP
     #Outlet Nodes on Supply Air Path Component,1
     Supply Air Path Component Nodes,1,AIRLOOPHVAC:ZONESPLITTER,CONFERENCE_4_Z20_SUPPLYSPLITTER,CONFERENCE_4_Z20_ZONEEQUIPMENTINLET,CONFERENCE_4_Z20_TERMINALINLET,CONFERENCE_4_Z20_AIRLOOP
! <#Nodes on Supply Air Path>,<Number of Nodes>
! <Supply Air Path Node>,<Node Type>,<Node Count>,<Node Name>,<AirLoopHVAC Name>
#Nodes on Supply Air Path,2
   Supply Air Path Node,Inlet Node,1,CONFERENCE_4_Z20_ZONEEQUIPMENTINLET,CONFERENCE_4_Z20_AIRLOOP
   Supply Air Path Node,Outlet Node,2,CONFERENCE_4_Z20_TERMINALINLET,CONFERENCE_4_Z20_AIRLOOP
 Supply Air Path,21,MECHANICAL_4_Z21,MECHANICAL_4_Z21_AIRLOOP
   #Components on Supply Air Path,1
   Supply Air Path Component,1,AIRLOOPHVAC:ZONESPLITTER,MECHANICAL_4_Z21_SUPPLYSPLITTER,MECHANICAL_4_Z21_AIRLOOP
     #Outlet Nodes on Supply Air Path Component,1
     Supply Air Path Component Nodes,1,AIRLOOPHVAC:ZONESPLITTER,MECHANICAL_4_Z21_SUPPLYSPLITTER,MECHANICAL_4_Z21_ZONEEQUIPMENTINLET,MECHANICAL_4_Z21_TERMINALINLET,MECHANICAL_4_Z21_AIRLOOP
! <#Nodes on Supply Air Path>,<Number of Nodes>
! <Supply Air Path Node>,<Node Type>,<Node Count>,<Node Name>,<AirLoopHVAC Name>
#Nodes on Supply Air Path,2
   Supply Air Path Node,Inlet Node,1,MECHANICAL_4_Z21_ZONEEQUIPMENTINLET,MECHANICAL_4_Z21_AIRLOOP
   Supply Air Path Node,Outlet Node,2,MECHANICAL_4_Z21_TERMINALINLET,MECHANICAL_4_Z21_AIRLOOP
 Supply Air Path,22,OFFICE_OPEN_4_Z22,OFFICE_OPEN_4_Z22_AIRLOOP
   #Components on Supply Air Path,1
   Supply Air Path Component,1,AIRLOOPHVAC:ZONESPLITTER,OFFICE_OPEN_4_Z22_SUPPLYSPLITTER,OFFICE_OPEN_4_Z22_AIRLOOP
     #Outlet Nodes on Supply Air Path Component,1
     Supply Air Path Component Nodes,1,AIRLOOPHVAC:ZONESPLITTER,OFFICE_OPEN_4_Z22_SUPPLYSPLITTER,OFFICE_OPEN_4_Z22_ZONEEQUIPMENTINLET,OFFICE_OPEN_4_Z22_TERMINALINLET,OFFICE_OPEN_4_Z22_AIRLOOP
! <#Nodes on Supply Air Path>,<Number of Nodes>
! <Supply Air Path Node>,<Node Type>,<Node Count>,<Node Name>,<AirLoopHVAC Name>
#Nodes on Supply Air Path,2
   Supply Air Path Node,Inlet Node,1,OFFICE_OPEN_4_Z22_ZONEEQUIPMENTINLET,OFFICE_OPEN_4_Z22_AIRLOOP
   Supply Air Path Node,Outlet Node,2,OFFICE_OPEN_4_Z22_TERMINALINLET,OFFICE_OPEN_4_Z22_AIRLOOP
 Supply Air Path,23,OFFICE_PRIVATE_4_Z23,OFFICE_PRIVATE_4_Z23_AIRLOOP
   #Components on Supply Air Path,1
   Supply Air Path Component,1,AIRLOOPHVAC:ZONESPLITTER,OFFICE_PRIVATE_4_Z23_SUPPLYSPLITTER,OFFICE_PRIVATE_4_Z23_AIRLOOP
     #Outlet Nodes on Supply Air Path Component,1
     Supply Air Path Component Nodes,1,AIRLOOPHVAC:ZONESPLITTER,OFFICE_PRIVATE_4_Z23_SUPPLYSPLITTER,OFFICE_PRIVATE_4_Z23_ZONEEQUIPMENTINLET,OFFICE_PRIVATE_4_Z23_TERMINALINLET,OFFICE_PRIVATE_4_Z23_AIRLOOP
! <#Nodes on Supply Air Path>,<Number of Nodes>
! <Supply Air Path Node>,<Node Type>,<Node Count>,<Node Name>,<AirLoopHVAC Name>
#Nodes on Supply Air Path,2
   Supply Air Path Node,Inlet Node,1,OFFICE_PRIVATE_4_Z23_ZONEEQUIPMENTINLET,OFFICE_PRIVATE_4_Z23_AIRLOOP
   Supply Air Path Node,Outlet Node,2,OFFICE_PRIVATE_4_Z23_TERMINALINLET,OFFICE_PRIVATE_4_Z23_AIRLOOP
 Supply Air Path,24,STORAGE_4_Z24,STORAGE_4_Z24_AIRLOOP
   #Components on Supply Air Path,1
   Supply Air Path Component,1,AIRLOOPHVAC:ZONESPLITTER,STORAGE_4_Z24_SUPPLYSPLITTER,STORAGE_4_Z24_AIRLOOP
     #Outlet Nodes on Supply Air Path Component,1
     Supply Air Path Component Nodes,1,AIRLOOPHVAC:ZONESPLITTER,STORAGE_4_Z24_SUPPLYSPLITTER,STORAGE_4_Z24_ZONEEQUIPMENTINLET,STORAGE_4_Z24_TERMINALINLET,STORAGE_4_Z24_AIRLOOP
! <#Nodes on Supply Air Path>,<Number of Nodes>
! <Supply Air Path Node>,<Node Type>,<Node Count>,<Node Name>,<AirLoopHVAC Name>
#Nodes on Supply Air Path,2
   Supply Air Path Node,Inlet Node,1,STORAGE_4_Z24_ZONEEQUIPMENTINLET,STORAGE_4_Z24_AIRLOOP
   Supply Air Path Node,Outlet Node,2,STORAGE_4_Z24_TERMINALINLET,STORAGE_4_Z24_AIRLOOP
 Supply Air Path,25,LOBBY_5_Z25,LOBBY_5_Z25_AIRLOOP
   #Components on Supply Air Path,1
   Supply Air Path Component,1,AIRLOOPHVAC:ZONESPLITTER,LOBBY_5_Z25_SUPPLYSPLITTER,LOBBY_5_Z25_AIRLOOP
     #Outlet Nodes on Supply Air Path Component,1
     Supply Air Path Component Nodes,1,AIRLOOPHVAC:ZONESPLITTER,LOBBY_5_Z25_SUPPLYSPLITTER,LOBBY_5_Z25_ZONEEQUIPMENTINLET,LOBBY_5_Z25_TERMINALINLET,LOBBY_5_Z25_AIRLOOP
! <#Nodes on Supply Air Path>,<Number of Nodes>
! <Supply Air Path Node>,<Node Type>,<Node Count>,<Node Name>,<AirLoopHVAC Name>
#Nodes on Supply Air Path,2
   Supply Air Path Node,Inlet Node,1,LOBBY_5_Z25_ZONEEQUIPMENTINLET,LOBBY_5_Z25_AIRLOOP
   Supply Air Path Node,Outlet Node,2,LOBBY_5_Z25_TERMINALINLET,LOBBY_5_Z25_AIRLOOP
 Supply Air Path,26,CONFERENCE_5_Z26,CONFERENCE_5_Z26_AIRLOOP
   #Components on Supply Air Path,1
   Supply Air Path Component,1,AIRLOOPHVAC:ZONESPLITTER,CONFERENCE_5_Z26_SUPPLYSPLITTER,CONFERENCE_5_Z26_AIRLOOP
     #Outlet Nodes on Supply Air Path Component,1
     Supply Air Path Component Nodes,1,AIRLOOPHVAC:ZONESPLITTER,CONFERENCE_5_Z26_SUPPLYSPLITTER,CONFERENCE_5_Z26_ZONEEQUIPMENTINLET,CONFERENCE_5_Z26_TERMINALINLET,CONFERENCE_5_Z26_AIRLOOP
! <#Nodes on Supply Air Path>,<Number of Nodes>
! <Supply Air Path Node>,<Node Type>,<Node Count>,<Node Name>,<AirLoopHVAC Name>
#Nodes on Supply Air Path,2
   Supply Air Path Node,Inlet Node,1,CONFERENCE_5_Z26_ZONEEQUIPMENTINLET,CONFERENCE_5_Z26_AIRLOOP
   Supply Air Path Node,Outlet Node,2,CONFERENCE_5_Z26_TERMINALINLET,CONFERENCE_5_Z26_AIRLOOP
 Supply Air Path,27,MECHANICAL_5_Z27,MECHANICAL_5_Z27_AIRLOOP
   #Components on Supply Air Path,1
   Supply Air Path Component,1,AIRLOOPHVAC:ZONESPLITTER,MECHANICAL_5_Z27_SUPPLYSPLITTER,MECHANICAL_5_Z27_AIRLOOP
     #Outlet Nodes on Supply Air Path Component,1
     Supply Air Path Component Nodes,1,AIRLOOPHVAC:ZONESPLITTER,MECHANICAL_5_Z27_SUPPLYSPLITTER,MECHANICAL_5_Z27_ZONEEQUIPMENTINLET,MECHANICAL_5_Z27_TERMINALINLET,MECHANICAL_5_Z27_AIRLOOP
! <#Nodes on Supply Air Path>,<Number of Nodes>
! <Supply Air Path Node>,<Node Type>,<Node Count>,<Node Name>,<AirLoopHVAC Name>
#Nodes on Supply Air Path,2
   Supply Air Path Node,Inlet Node,1,MECHANICAL_5_Z27_ZONEEQUIPMENTINLET,MECHANICAL_5_Z27_AIRLOOP
   Supply Air Path Node,Outlet Node,2,MECHANICAL_5_Z27_TERMINALINLET,MECHANICAL_5_Z27_AIRLOOP
 Supply Air Path,28,OFFICE_PRIVATE_5_Z28,OFFICE_PRIVATE_5_Z28_AIRLOOP
   #Components on Supply Air Path,1
   Supply Air Path Component,1,AIRLOOPHVAC:ZONESPLITTER,OFFICE_PRIVATE_5_Z28_SUPPLYSPLITTER,OFFICE_PRIVATE_5_Z28_AIRLOOP
     #Outlet Nodes on Supply Air Path Component,1
     Supply Air Path Component Nodes,1,AIRLOOPHVAC:ZONESPLITTER,OFFICE_PRIVATE_5_Z28_SUPPLYSPLITTER,OFFICE_PRIVATE_5_Z28_ZONEEQUIPMENTINLET,OFFICE_PRIVATE_5_Z28_TERMINALINLET,OFFICE_PRIVATE_5_Z28_AIRLOOP
! <#Nodes on Supply Air Path>,<Number of Nodes>
! <Supply Air Path Node>,<Node Type>,<Node Count>,<Node Name>,<AirLoopHVAC Name>
#Nodes on Supply Air Path,2
   Supply Air Path Node,Inlet Node,1,OFFICE_PRIVATE_5_Z28_ZONEEQUIPMENTINLET,OFFICE_PRIVATE_5_Z28_AIRLOOP
   Supply Air Path Node,Outlet Node,2,OFFICE_PRIVATE_5_Z28_TERMINALINLET,OFFICE_PRIVATE_5_Z28_AIRLOOP
 Supply Air Path,29,STORAGE_5_Z29,STORAGE_5_Z29_AIRLOOP
   #Components on Supply Air Path,1
   Supply Air Path Component,1,AIRLOOPHVAC:ZONESPLITTER,STORAGE_5_Z29_SUPPLYSPLITTER,STORAGE_5_Z29_AIRLOOP
     #Outlet Nodes on Supply Air Path Component,1
     Supply Air Path Component Nodes,1,AIRLOOPHVAC:ZONESPLITTER,STORAGE_5_Z29_SUPPLYSPLITTER,STORAGE_5_Z29_ZONEEQUIPMENTINLET,STORAGE_5_Z29_TERMINALINLET,STORAGE_5_Z29_AIRLOOP
! <#Nodes on Supply Air Path>,<Number of Nodes>
! <Supply Air Path Node>,<Node Type>,<Node Count>,<Node Name>,<AirLoopHVAC Name>
#Nodes on Supply Air Path,2
   Supply Air Path Node,Inlet Node,1,STORAGE_5_Z29_ZONEEQUIPMENTINLET,STORAGE_5_Z29_AIRLOOP
   Supply Air Path Node,Outlet Node,2,STORAGE_5_Z29_TERMINALINLET,STORAGE_5_Z29_AIRLOOP
 Supply Air Path,30,LOBBY_6_Z30,LOBBY_6_Z30_AIRLOOP
   #Components on Supply Air Path,1
   Supply Air Path Component,1,AIRLOOPHVAC:ZONESPLITTER,LOBBY_6_Z30_SUPPLYSPLITTER,LOBBY_6_Z30_AIRLOOP
     #Outlet Nodes on Supply Air Path Component,1
     Supply Air Path Component Nodes,1,AIRLOOPHVAC:ZONESPLITTER,LOBBY_6_Z30_SUPPLYSPLITTER,LOBBY_6_Z30_ZONEEQUIPMENTINLET,LOBBY_6_Z30_TERMINALINLET,LOBBY_6_Z30_AIRLOOP
! <#Nodes on Supply Air Path>,<Number of Nodes>
! <Supply Air Path Node>,<Node Type>,<Node Count>,<Node Name>,<AirLoopHVAC Name>
#Nodes on Supply Air Path,2
   Supply Air Path Node,Inlet Node,1,LOBBY_6_Z30_ZONEEQUIPMENTINLET,LOBBY_6_Z30_AIRLOOP
   Supply Air Path Node,Outlet Node,2,LOBBY_6_Z30_TERMINALINLET,LOBBY_6_Z30_AIRLOOP
 Supply Air Path,31,CONFERENCE_6_Z31,CONFERENCE_6_Z31_AIRLOOP
   #Components on Supply Air Path,1
   Supply Air Path Component,1,AIRLOOPHVAC:ZONESPLITTER,CONFERENCE_6_Z31_SUPPLYSPLITTER,CONFERENCE_6_Z31_AIRLOOP
     #Outlet Nodes on Supply Air Path Component,1
     Supply Air Path Component Nodes,1,AIRLOOPHVAC:ZONESPLITTER,CONFERENCE_6_Z31_SUPPLYSPLITTER,CONFERENCE_6_Z31_ZONEEQUIPMENTINLET,CONFERENCE_6_Z31_TERMINALINLET,CONFERENCE_6_Z31_AIRLOOP
! <#Nodes on Supply Air Path>,<Number of Nodes>
! <Supply Air Path Node>,<Node Type>,<Node Count>,<Node Name>,<AirLoopHVAC Name>
#Nodes on Supply Air Path,2
   Supply Air Path Node,Inlet Node,1,CONFERENCE_6_Z31_ZONEEQUIPMENTINLET,CONFERENCE_6_Z31_AIRLOOP
   Supply Air Path Node,Outlet Node,2,CONFERENCE_6_Z31_TERMINALINLET,CONFERENCE_6_Z31_AIRLOOP
 Supply Air Path,32,BREAK_ROOM_6_Z32,BREAK_ROOM_6_Z32_AIRLOOP
   #Components on Supply Air Path,1
   Supply Air Path Component,1,AIRLOOPHVAC:ZONESPLITTER,BREAK_ROOM_6_Z32_SUPPLYSPLITTER,BREAK_ROOM_6_Z32_AIRLOOP
     #Outlet Nodes on Supply Air Path Component,1
     Supply Air Path Component Nodes,1,AIRLOOPHVAC:ZONESPLITTER,BREAK_ROOM_6_Z32_SUPPLYSPLITTER,BREAK_ROOM_6_Z32_ZONEEQUIPMENTINLET,BREAK_ROOM_6_Z32_TERMINALINLET,BREAK_ROOM_6_Z32_AIRLOOP
! <#Nodes on Supply Air Path>,<Number of Nodes>
! <Supply Air Path Node>,<Node Type>,<Node Count>,<Node Name>,<AirLoopHVAC Name>
#Nodes on Supply Air Path,2
   Supply Air Path Node,Inlet Node,1,BREAK_ROOM_6_Z32_ZONEEQUIPMENTINLET,BREAK_ROOM_6_Z32_AIRLOOP
   Supply Air Path Node,Outlet Node,2,BREAK_ROOM_6_Z32_TERMINALINLET,BREAK_ROOM_6_Z32_AIRLOOP
 Supply Air Path,33,OFFICE_OPEN_6_Z33,OFFICE_OPEN_6_Z33_AIRLOOP
   #Components on Supply Air Path,1
   Supply Air Path Component,1,AIRLOOPHVAC:ZONESPLITTER,OFFICE_OPEN_6_Z33_SUPPLYSPLITTER,OFFICE_OPEN_6_Z33_AIRLOOP
     #Outlet Nodes on Supply Air Path Component,1
     Supply Air Path Component Nodes,1,AIRLOOPHVAC:ZONESPLITTER,OFFICE_OPEN_6_Z33_SUPPLYSPLITTER,OFFICE_OPEN_6_Z33_ZONEEQUIPMENTINLET,OFFICE_OPEN_6_Z33_TERMINALINLET,OFFICE_OPEN_6_Z33_AIRLOOP
! <#Nodes on Supply Air Path>,<Number of Nodes>
! <Supply Air Path Node>,<Node Type>,<Node Count>,<Node Name>,<AirLoopHVAC Name>
#Nodes on Supply Air Path,2
   Supply Air Path Node,Inlet Node,1,OFFICE_OPEN_6_Z33_ZONEEQUIPMENTINLET,OFFICE_OPEN_6_Z33_AIRLOOP
   Supply Air Path Node,Outlet Node,2,OFFICE_OPEN_6_Z33_TERMINALINLET,OFFICE_OPEN_6_Z33_AIRLOOP
 Supply Air Path,34,OFFICE_PRIVATE_6_Z34,OFFICE_PRIVATE_6_Z34_AIRLOOP
   #Components on Supply Air Path,1
   Supply Air Path Component,1,AIRLOOPHVAC:ZONESPLITTER,OFFICE_PRIVATE_6_Z34_SUPPLYSPLITTER,OFFICE_PRIVATE_6_Z34_AIRLOOP
     #Outlet Nodes on Supply Air Path Component,1
     Supply Air Path Component Nodes,1,AIRLOOPHVAC:ZONESPLITTER,OFFICE_PRIVATE_6_Z34_SUPPLYSPLITTER,OFFICE_PRIVATE_6_Z34_ZONEEQUIPMENTINLET,OFFICE_PRIVATE_6_Z34_TERMINALINLET,OFFICE_PRIVATE_6_Z34_AIRLOOP
! <#Nodes on Supply Air Path>,<Number of Nodes>
! <Supply Air Path Node>,<Node Type>,<Node Count>,<Node Name>,<AirLoopHVAC Name>
#Nodes on Supply Air Path,2
   Supply Air Path Node,Inlet Node,1,OFFICE_PRIVATE_6_Z34_ZONEEQUIPMENTINLET,OFFICE_PRIVATE_6_Z34_AIRLOOP
   Supply Air Path Node,Outlet Node,2,OFFICE_PRIVATE_6_Z34_TERMINALINLET,OFFICE_PRIVATE_6_Z34_AIRLOOP
 Supply Air Path,35,STORAGE_6_Z35,STORAGE_6_Z35_AIRLOOP
   #Components on Supply Air Path,1
   Supply Air Path Component,1,AIRLOOPHVAC:ZONESPLITTER,STORAGE_6_Z35_SUPPLYSPLITTER,STORAGE_6_Z35_AIRLOOP
     #Outlet Nodes on Supply Air Path Component,1
     Supply Air Path Component Nodes,1,AIRLOOPHVAC:ZONESPLITTER,STORAGE_6_Z35_SUPPLYSPLITTER,STORAGE_6_Z35_ZONEEQUIPMENTINLET,STORAGE_6_Z35_TERMINALINLET,STORAGE_6_Z35_AIRLOOP
! <#Nodes on Supply Air Path>,<Number of Nodes>
! <Supply Air Path Node>,<Node Type>,<Node Count>,<Node Name>,<AirLoopHVAC Name>
#Nodes on Supply Air Path,2
   Supply Air Path Node,Inlet Node,1,STORAGE_6_Z35_ZONEEQUIPMENTINLET,STORAGE_6_Z35_AIRLOOP
   Supply Air Path Node,Outlet Node,2,STORAGE_6_Z35_TERMINALINLET,STORAGE_6_Z35_AIRLOOP
 Supply Air Path,36,LOBBY_7_Z36,LOBBY_7_Z36_AIRLOOP
   #Components on Supply Air Path,1
   Supply Air Path Component,1,AIRLOOPHVAC:ZONESPLITTER,LOBBY_7_Z36_SUPPLYSPLITTER,LOBBY_7_Z36_AIRLOOP
     #Outlet Nodes on Supply Air Path Component,1
     Supply Air Path Component Nodes,1,AIRLOOPHVAC:ZONESPLITTER,LOBBY_7_Z36_SUPPLYSPLITTER,LOBBY_7_Z36_ZONEEQUIPMENTINLET,LOBBY_7_Z36_TERMINALINLET,LOBBY_7_Z36_AIRLOOP
! <#Nodes on Supply Air Path>,<Number of Nodes>
! <Supply Air Path Node>,<Node Type>,<Node Count>,<Node Name>,<AirLoopHVAC Name>
#Nodes on Supply Air Path,2
   Supply Air Path Node,Inlet Node,1,LOBBY_7_Z36_ZONEEQUIPMENTINLET,LOBBY_7_Z36_AIRLOOP
   Supply Air Path Node,Outlet Node,2,LOBBY_7_Z36_TERMINALINLET,LOBBY_7_Z36_AIRLOOP
 Supply Air Path,37,CONFERENCE_7_Z37,CONFERENCE_7_Z37_AIRLOOP
   #Components on Supply Air Path,1
   Supply Air Path Component,1,AIRLOOPHVAC:ZONESPLITTER,CONFERENCE_7_Z37_SUPPLYSPLITTER,CONFERENCE_7_Z37_AIRLOOP
     #Outlet Nodes on Supply Air Path Component,1
     Supply Air Path Component Nodes,1,AIRLOOPHVAC:ZONESPLITTER,CONFERENCE_7_Z37_SUPPLYSPLITTER,CONFERENCE_7_Z37_ZONEEQUIPMENTINLET,CONFERENCE_7_Z37_TERMINALINLET,CONFERENCE_7_Z37_AIRLOOP
! <#Nodes on Supply Air Path>,<Number of Nodes>
! <Supply Air Path Node>,<Node Type>,<Node Count>,<Node Name>,<AirLoopHVAC Name>
#Nodes on Supply Air Path,2
   Supply Air Path Node,Inlet Node,1,CONFERENCE_7_Z37_ZONEEQUIPMENTINLET,CONFERENCE_7_Z37_AIRLOOP
   Supply Air Path Node,Outlet Node,2,CONFERENCE_7_Z37_TERMINALINLET,CONFERENCE_7_Z37_AIRLOOP
 Supply Air Path,38,MECHANICAL_7_Z38,MECHANICAL_7_Z38_AIRLOOP
   #Components on Supply Air Path,1
   Supply Air Path Component,1,AIRLOOPHVAC:ZONESPLITTER,MECHANICAL_7_Z38_SUPPLYSPLITTER,MECHANICAL_7_Z38_AIRLOOP
     #Outlet Nodes on Supply Air Path Component,1
     Supply Air Path Component Nodes,1,AIRLOOPHVAC:ZONESPLITTER,MECHANICAL_7_Z38_SUPPLYSPLITTER,MECHANICAL_7_Z38_ZONEEQUIPMENTINLET,MECHANICAL_7_Z38_TERMINALINLET,MECHANICAL_7_Z38_AIRLOOP
! <#Nodes on Supply Air Path>,<Number of Nodes>
! <Supply Air Path Node>,<Node Type>,<Node Count>,<Node Name>,<AirLoopHVAC Name>
#Nodes on Supply Air Path,2
   Supply Air Path Node,Inlet Node,1,MECHANICAL_7_Z38_ZONEEQUIPMENTINLET,MECHANICAL_7_Z38_AIRLOOP
   Supply Air Path Node,Outlet Node,2,MECHANICAL_7_Z38_TERMINALINLET,MECHANICAL_7_Z38_AIRLOOP
 Supply Air Path,39,OFFICE_OPEN_7_Z39,OFFICE_OPEN_7_Z39_AIRLOOP
   #Components on Supply Air Path,1
   Supply Air Path Component,1,AIRLOOPHVAC:ZONESPLITTER,OFFICE_OPEN_7_Z39_SUPPLYSPLITTER,OFFICE_OPEN_7_Z39_AIRLOOP
     #Outlet Nodes on Supply Air Path Component,1
     Supply Air Path Component Nodes,1,AIRLOOPHVAC:ZONESPLITTER,OFFICE_OPEN_7_Z39_SUPPLYSPLITTER,OFFICE_OPEN_7_Z39_ZONEEQUIPMENTINLET,OFFICE_OPEN_7_Z39_TERMINALINLET,OFFICE_OPEN_7_Z39_AIRLOOP
! <#Nodes on Supply Air Path>,<Number of Nodes>
! <Supply Air Path Node>,<Node Type>,<Node Count>,<Node Name>,<AirLoopHVAC Name>
#Nodes on Supply Air Path,2
   Supply Air Path Node,Inlet Node,1,OFFICE_OPEN_7_Z39_ZONEEQUIPMENTINLET,OFFICE_OPEN_7_Z39_AIRLOOP
   Supply Air Path Node,Outlet Node,2,OFFICE_OPEN_7_Z39_TERMINALINLET,OFFICE_OPEN_7_Z39_AIRLOOP
 Supply Air Path,40,STORAGE_7_Z40,STORAGE_7_Z40_AIRLOOP
   #Components on Supply Air Path,1
   Supply Air Path Component,1,AIRLOOPHVAC:ZONESPLITTER,STORAGE_7_Z40_SUPPLYSPLITTER,STORAGE_7_Z40_AIRLOOP
     #Outlet Nodes on Supply Air Path Component,1
     Supply Air Path Component Nodes,1,AIRLOOPHVAC:ZONESPLITTER,STORAGE_7_Z40_SUPPLYSPLITTER,STORAGE_7_Z40_ZONEEQUIPMENTINLET,STORAGE_7_Z40_TERMINALINLET,STORAGE_7_Z40_AIRLOOP
! <#Nodes on Supply Air Path>,<Number of Nodes>
! <Supply Air Path Node>,<Node Type>,<Node Count>,<Node Name>,<AirLoopHVAC Name>
#Nodes on Supply Air Path,2
   Supply Air Path Node,Inlet Node,1,STORAGE_7_Z40_ZONEEQUIPMENTINLET,STORAGE_7_Z40_AIRLOOP
   Supply Air Path Node,Outlet Node,2,STORAGE_7_Z40_TERMINALINLET,STORAGE_7_Z40_AIRLOOP
 Supply Air Path,41,CONFERENCE_8_Z41,CONFERENCE_8_Z41_AIRLOOP
   #Components on Supply Air Path,1
   Supply Air Path Component,1,AIRLOOPHVAC:ZONESPLITTER,CONFERENCE_8_Z41_SUPPLYSPLITTER,CONFERENCE_8_Z41_AIRLOOP
     #Outlet Nodes on Supply Air Path Component,1
     Supply Air Path Component Nodes,1,AIRLOOPHVAC:ZONESPLITTER,CONFERENCE_8_Z41_SUPPLYSPLITTER,CONFERENCE_8_Z41_ZONEEQUIPMENTINLET,CONFERENCE_8_Z41_TERMINALINLET,CONFERENCE_8_Z41_AIRLOOP
! <#Nodes on Supply Air Path>,<Number of Nodes>
! <Supply Air Path Node>,<Node Type>,<Node Count>,<Node Name>,<AirLoopHVAC Name>
#Nodes on Supply Air Path,2
   Supply Air Path Node,Inlet Node,1,CONFERENCE_8_Z41_ZONEEQUIPMENTINLET,CONFERENCE_8_Z41_AIRLOOP
   Supply Air Path Node,Outlet Node,2,CONFERENCE_8_Z41_TERMINALINLET,CONFERENCE_8_Z41_AIRLOOP
 Supply Air Path,42,BREAK_ROOM_8_Z42,BREAK_ROOM_8_Z42_AIRLOOP
   #Components on Supply Air Path,1
   Supply Air Path Component,1,AIRLOOPHVAC:ZONESPLITTER,BREAK_ROOM_8_Z42_SUPPLYSPLITTER,BREAK_ROOM_8_Z42_AIRLOOP
     #Outlet Nodes on Supply Air Path Component,1
     Supply Air Path Component Nodes,1,AIRLOOPHVAC:ZONESPLITTER,BREAK_ROOM_8_Z42_SUPPLYSPLITTER,BREAK_ROOM_8_Z42_ZONEEQUIPMENTINLET,BREAK_ROOM_8_Z42_TERMINALINLET,BREAK_ROOM_8_Z42_AIRLOOP
! <#Nodes on Supply Air Path>,<Number of Nodes>
! <Supply Air Path Node>,<Node Type>,<Node Count>,<Node Name>,<AirLoopHVAC Name>
#Nodes on Supply Air Path,2
   Supply Air Path Node,Inlet Node,1,BREAK_ROOM_8_Z42_ZONEEQUIPMENTINLET,BREAK_ROOM_8_Z42_AIRLOOP
   Supply Air Path Node,Outlet Node,2,BREAK_ROOM_8_Z42_TERMINALINLET,BREAK_ROOM_8_Z42_AIRLOOP
 Supply Air Path,43,MECHANICAL_8_Z43,MECHANICAL_8_Z43_AIRLOOP
   #Components on Supply Air Path,1
   Supply Air Path Component,1,AIRLOOPHVAC:ZONESPLITTER,MECHANICAL_8_Z43_SUPPLYSPLITTER,MECHANICAL_8_Z43_AIRLOOP
     #Outlet Nodes on Supply Air Path Component,1
     Supply Air Path Component Nodes,1,AIRLOOPHVAC:ZONESPLITTER,MECHANICAL_8_Z43_SUPPLYSPLITTER,MECHANICAL_8_Z43_ZONEEQUIPMENTINLET,MECHANICAL_8_Z43_TERMINALINLET,MECHANICAL_8_Z43_AIRLOOP
! <#Nodes on Supply Air Path>,<Number of Nodes>
! <Supply Air Path Node>,<Node Type>,<Node Count>,<Node Name>,<AirLoopHVAC Name>
#Nodes on Supply Air Path,2
   Supply Air Path Node,Inlet Node,1,MECHANICAL_8_Z43_ZONEEQUIPMENTINLET,MECHANICAL_8_Z43_AIRLOOP
   Supply Air Path Node,Outlet Node,2,MECHANICAL_8_Z43_TERMINALINLET,MECHANICAL_8_Z43_AIRLOOP
 Supply Air Path,44,STORAGE_8_Z44,STORAGE_8_Z44_AIRLOOP
   #Components on Supply Air Path,1
   Supply Air Path Component,1,AIRLOOPHVAC:ZONESPLITTER,STORAGE_8_Z44_SUPPLYSPLITTER,STORAGE_8_Z44_AIRLOOP
     #Outlet Nodes on Supply Air Path Component,1
     Supply Air Path Component Nodes,1,AIRLOOPHVAC:ZONESPLITTER,STORAGE_8_Z44_SUPPLYSPLITTER,STORAGE_8_Z44_ZONEEQUIPMENTINLET,STORAGE_8_Z44_TERMINALINLET,STORAGE_8_Z44_AIRLOOP
! <#Nodes on Supply Air Path>,<Number of Nodes>
! <Supply Air Path Node>,<Node Type>,<Node Count>,<Node Name>,<AirLoopHVAC Name>
#Nodes on Supply Air Path,2
   Supply Air Path Node,Inlet Node,1,STORAGE_8_Z44_ZONEEQUIPMENTINLET,STORAGE_8_Z44_AIRLOOP
   Supply Air Path Node,Outlet Node,2,STORAGE_8_Z44_TERMINALINLET,STORAGE_8_Z44_AIRLOOP
 Supply Air Path,45,LOBBY_9_Z45,LOBBY_9_Z45_AIRLOOP
   #Components on Supply Air Path,1
   Supply Air Path Component,1,AIRLOOPHVAC:ZONESPLITTER,LOBBY_9_Z45_SUPPLYSPLITTER,LOBBY_9_Z45_AIRLOOP
     #Outlet Nodes on Supply Air Path Component,1
     Supply Air Path Component Nodes,1,AIRLOOPHVAC:ZONESPLITTER,LOBBY_9_Z45_SUPPLYSPLITTER,LOBBY_9_Z45_ZONEEQUIPMENTINLET,LOBBY_9_Z45_TERMINALINLET,LOBBY_9_Z45_AIRLOOP
! <#Nodes on Supply Air Path>,<Number of Nodes>
! <Supply Air Path Node>,<Node Type>,<Node Count>,<Node Name>,<AirLoopHVAC Name>
#Nodes on Supply Air Path,2
   Supply Air Path Node,Inlet Node,1,LOBBY_9_Z45_ZONEEQUIPMENTINLET,LOBBY_9_Z45_AIRLOOP
   Supply Air Path Node,Outlet Node,2,LOBBY_9_Z45_TERMINALINLET,LOBBY_9_Z45_AIRLOOP
 Supply Air Path,46,CONFERENCE_9_Z46,CONFERENCE_9_Z46_AIRLOOP
   #Components on Supply Air Path,1
   Supply Air Path Component,1,AIRLOOPHVAC:ZONESPLITTER,CONFERENCE_9_Z46_SUPPLYSPLITTER,CONFERENCE_9_Z46_AIRLOOP
     #Outlet Nodes on Supply Air Path Component,1
     Supply Air Path Component Nodes,1,AIRLOOPHVAC:ZONESPLITTER,CONFERENCE_9_Z46_SUPPLYSPLITTER,CONFERENCE_9_Z46_ZONEEQUIPMENTINLET,CONFERENCE_9_Z46_TERMINALINLET,CONFERENCE_9_Z46_AIRLOOP
! <#Nodes on Supply Air Path>,<Number of Nodes>
! <Supply Air Path Node>,<Node Type>,<Node Count>,<Node Name>,<AirLoopHVAC Name>
#Nodes on Supply Air Path,2
   Supply Air Path Node,Inlet Node,1,CONFERENCE_9_Z46_ZONEEQUIPMENTINLET,CONFERENCE_9_Z46_AIRLOOP
   Supply Air Path Node,Outlet Node,2,CONFERENCE_9_Z46_TERMINALINLET,CONFERENCE_9_Z46_AIRLOOP
 Supply Air Path,47,BREAK_ROOM_9_Z47,BREAK_ROOM_9_Z47_AIRLOOP
   #Components on Supply Air Path,1
   Supply Air Path Component,1,AIRLOOPHVAC:ZONESPLITTER,BREAK_ROOM_9_Z47_SUPPLYSPLITTER,BREAK_ROOM_9_Z47_AIRLOOP
     #Outlet Nodes on Supply Air Path Component,1
     Supply Air Path Component Nodes,1,AIRLOOPHVAC:ZONESPLITTER,BREAK_ROOM_9_Z47_SUPPLYSPLITTER,BREAK_ROOM_9_Z47_ZONEEQUIPMENTINLET,BREAK_ROOM_9_Z47_TERMINALINLET,BREAK_ROOM_9_Z47_AIRLOOP
! <#Nodes on Supply Air Path>,<Number of Nodes>
! <Supply Air Path Node>,<Node Type>,<Node Count>,<Node Name>,<AirLoopHVAC Name>
#Nodes on Supply Air Path,2
   Supply Air Path Node,Inlet Node,1,BREAK_ROOM_9_Z47_ZONEEQUIPMENTINLET,BREAK_ROOM_9_Z47_AIRLOOP
   Supply Air Path Node,Outlet Node,2,BREAK_ROOM_9_Z47_TERMINALINLET,BREAK_ROOM_9_Z47_AIRLOOP
 Supply Air Path,48,MECHANICAL_9_Z48,MECHANICAL_9_Z48_AIRLOOP
   #Components on Supply Air Path,1
   Supply Air Path Component,1,AIRLOOPHVAC:ZONESPLITTER,MECHANICAL_9_Z48_SUPPLYSPLITTER,MECHANICAL_9_Z48_AIRLOOP
     #Outlet Nodes on Supply Air Path Component,1
     Supply Air Path Component Nodes,1,AIRLOOPHVAC:ZONESPLITTER,MECHANICAL_9_Z48_SUPPLYSPLITTER,MECHANICAL_9_Z48_ZONEEQUIPMENTINLET,MECHANICAL_9_Z48_TERMINALINLET,MECHANICAL_9_Z48_AIRLOOP
! <#Nodes on Supply Air Path>,<Number of Nodes>
! <Supply Air Path Node>,<Node Type>,<Node Count>,<Node Name>,<AirLoopHVAC Name>
#Nodes on Supply Air Path,2
   Supply Air Path Node,Inlet Node,1,MECHANICAL_9_Z48_ZONEEQUIPMENTINLET,MECHANICAL_9_Z48_AIRLOOP
   Supply Air Path Node,Outlet Node,2,MECHANICAL_9_Z48_TERMINALINLET,MECHANICAL_9_Z48_AIRLOOP
 Supply Air Path,49,OFFICE_OPEN_9_Z49,OFFICE_OPEN_9_Z49_AIRLOOP
   #Components on Supply Air Path,1
   Supply Air Path Component,1,AIRLOOPHVAC:ZONESPLITTER,OFFICE_OPEN_9_Z49_SUPPLYSPLITTER,OFFICE_OPEN_9_Z49_AIRLOOP
     #Outlet Nodes on Supply Air Path Component,1
     Supply Air Path Component Nodes,1,AIRLOOPHVAC:ZONESPLITTER,OFFICE_OPEN_9_Z49_SUPPLYSPLITTER,OFFICE_OPEN_9_Z49_ZONEEQUIPMENTINLET,OFFICE_OPEN_9_Z49_TERMINALINLET,OFFICE_OPEN_9_Z49_AIRLOOP
! <#Nodes on Supply Air Path>,<Number of Nodes>
! <Supply Air Path Node>,<Node Type>,<Node Count>,<Node Name>,<AirLoopHVAC Name>
#Nodes on Supply Air Path,2
   Supply Air Path Node,Inlet Node,1,OFFICE_OPEN_9_Z49_ZONEEQUIPMENTINLET,OFFICE_OPEN_9_Z49_AIRLOOP
   Supply Air Path Node,Outlet Node,2,OFFICE_OPEN_9_Z49_TERMINALINLET,OFFICE_OPEN_9_Z49_AIRLOOP
 Supply Air Path,50,OFFICE_PRIVATE_9_Z50,OFFICE_PRIVATE_9_Z50_AIRLOOP
   #Components on Supply Air Path,1
   Supply Air Path Component,1,AIRLOOPHVAC:ZONESPLITTER,OFFICE_PRIVATE_9_Z50_SUPPLYSPLITTER,OFFICE_PRIVATE_9_Z50_AIRLOOP
     #Outlet Nodes on Supply Air Path Component,1
[...]
 Non-Parent Node Connection,MECHANICAL_4_Z21_SUPPLYEQUIPMENTOUTLETNODE,FAN:VARIABLEVOLUME,MECHANICAL_4_Z21_SUPPLYFAN,Outlet,1
 Non-Parent Node Connection,OFFICE_OPEN_4_Z22_HEATC-FANNODE,FAN:VARIABLEVOLUME,OFFICE_OPEN_4_Z22_SUPPLYFAN,Inlet,1
 Non-Parent Node Connection,OFFICE_OPEN_4_Z22_SUPPLYEQUIPMENTOUTLETNODE,FAN:VARIABLEVOLUME,OFFICE_OPEN_4_Z22_SUPPLYFAN,Outlet,1
 Non-Parent Node Connection,OFFICE_PRIVATE_4_Z23_HEATC-FANNODE,FAN:VARIABLEVOLUME,OFFICE_PRIVATE_4_Z23_SUPPLYFAN,Inlet,1
 Non-Parent Node Connection,OFFICE_PRIVATE_4_Z23_SUPPLYEQUIPMENTOUTLETNODE,FAN:VARIABLEVOLUME,OFFICE_PRIVATE_4_Z23_SUPPLYFAN,Outlet,1
 Non-Parent Node Connection,STORAGE_4_Z24_HEATC-FANNODE,FAN:VARIABLEVOLUME,STORAGE_4_Z24_SUPPLYFAN,Inlet,1
 Non-Parent Node Connection,STORAGE_4_Z24_SUPPLYEQUIPMENTOUTLETNODE,FAN:VARIABLEVOLUME,STORAGE_4_Z24_SUPPLYFAN,Outlet,1
 Non-Parent Node Connection,LOBBY_5_Z25_HEATC-FANNODE,FAN:VARIABLEVOLUME,LOBBY_5_Z25_SUPPLYFAN,Inlet,1
 Non-Parent Node Connection,LOBBY_5_Z25_SUPPLYEQUIPMENTOUTLETNODE,FAN:VARIABLEVOLUME,LOBBY_5_Z25_SUPPLYFAN,Outlet,1
 Non-Parent Node Connection,CONFERENCE_5_Z26_HEATC-FANNODE,FAN:VARIABLEVOLUME,CONFERENCE_5_Z26_SUPPLYFAN,Inlet,1
 Non-Parent Node Connection,CONFERENCE_5_Z26_SUPPLYEQUIPMENTOUTLETNODE,FAN:VARIABLEVOLUME,CONFERENCE_5_Z26_SUPPLYFAN,Outlet,1
 Non-Parent Node Connection,MECHANICAL_5_Z27_HEATC-FANNODE,FAN:VARIABLEVOLUME,MECHANICAL_5_Z27_SUPPLYFAN,Inlet,1
 Non-Parent Node Connection,MECHANICAL_5_Z27_SUPPLYEQUIPMENTOUTLETNODE,FAN:VARIABLEVOLUME,MECHANICAL_5_Z27_SUPPLYFAN,Outlet,1
 Non-Parent Node Connection,OFFICE_PRIVATE_5_Z28_HEATC-FANNODE,FAN:VARIABLEVOLUME,OFFICE_PRIVATE_5_Z28_SUPPLYFAN,Inlet,1
 Non-Parent Node Connection,OFFICE_PRIVATE_5_Z28_SUPPLYEQUIPMENTOUTLETNODE,FAN:VARIABLEVOLUME,OFFICE_PRIVATE_5_Z28_SUPPLYFAN,Outlet,1
 Non-Parent Node Connection,STORAGE_5_Z29_HEATC-FANNODE,FAN:VARIABLEVOLUME,STORAGE_5_Z29_SUPPLYFAN,Inlet,1
 Non-Parent Node Connection,STORAGE_5_Z29_SUPPLYEQUIPMENTOUTLETNODE,FAN:VARIABLEVOLUME,STORAGE_5_Z29_SUPPLYFAN,Outlet,1
 Non-Parent Node Connection,LOBBY_6_Z30_HEATC-FANNODE,FAN:VARIABLEVOLUME,LOBBY_6_Z30_SUPPLYFAN,Inlet,1
 Non-Parent Node Connection,LOBBY_6_Z30_SUPPLYEQUIPMENTOUTLETNODE,FAN:VARIABLEVOLUME,LOBBY_6_Z30_SUPPLYFAN,Outlet,1
 Non-Parent Node Connection,CONFERENCE_6_Z31_HEATC-FANNODE,FAN:VARIABLEVOLUME,CONFERENCE_6_Z31_SUPPLYFAN,Inlet,1
 Non-Parent Node Connection,CONFERENCE_6_Z31_SUPPLYEQUIPMENTOUTLETNODE,FAN:VARIABLEVOLUME,CONFERENCE_6_Z31_SUPPLYFAN,Outlet,1
 Non-Parent Node Connection,BREAK_ROOM_6_Z32_HEATC-FANNODE,FAN:VARIABLEVOLUME,BREAK_ROOM_6_Z32_SUPPLYFAN,Inlet,1
 Non-Parent Node Connection,BREAK_ROOM_6_Z32_SUPPLYEQUIPMENTOUTLETNODE,FAN:VARIABLEVOLUME,BREAK_ROOM_6_Z32_SUPPLYFAN,Outlet,1
 Non-Parent Node Connection,OFFICE_OPEN_6_Z33_HEATC-FANNODE,FAN:VARIABLEVOLUME,OFFICE_OPEN_6_Z33_SUPPLYFAN,Inlet,1
 Non-Parent Node Connection,OFFICE_OPEN_6_Z33_SUPPLYEQUIPMENTOUTLETNODE,FAN:VARIABLEVOLUME,OFFICE_OPEN_6_Z33_SUPPLYFAN,Outlet,1
 Non-Parent Node Connection,OFFICE_PRIVATE_6_Z34_HEATC-FANNODE,FAN:VARIABLEVOLUME,OFFICE_PRIVATE_6_Z34_SUPPLYFAN,Inlet,1
 Non-Parent Node Connection,OFFICE_PRIVATE_6_Z34_SUPPLYEQUIPMENTOUTLETNODE,FAN:VARIABLEVOLUME,OFFICE_PRIVATE_6_Z34_SUPPLYFAN,Outlet,1
 Non-Parent Node Connection,STORAGE_6_Z35_HEATC-FANNODE,FAN:VARIABLEVOLUME,STORAGE_6_Z35_SUPPLYFAN,Inlet,1
 Non-Parent Node Connection,STORAGE_6_Z35_SUPPLYEQUIPMENTOUTLETNODE,FAN:VARIABLEVOLUME,STORAGE_6_Z35_SUPPLYFAN,Outlet,1
 Non-Parent Node Connection,LOBBY_7_Z36_HEATC-FANNODE,FAN:VARIABLEVOLUME,LOBBY_7_Z36_SUPPLYFAN,Inlet,1
 Non-Parent Node Connection,LOBBY_7_Z36_SUPPLYEQUIPMENTOUTLETNODE,FAN:VARIABLEVOLUME,LOBBY_7_Z36_SUPPLYFAN,Outlet,1
 Non-Parent Node Connection,CONFERENCE_7_Z37_HEATC-FANNODE,FAN:VARIABLEVOLUME,CONFERENCE_7_Z37_SUPPLYFAN,Inlet,1
 Non-Parent Node Connection,CONFERENCE_7_Z37_SUPPLYEQUIPMENTOUTLETNODE,FAN:VARIABLEVOLUME,CONFERENCE_7_Z37_SUPPLYFAN,Outlet,1
 Non-Parent Node Connection,MECHANICAL_7_Z38_HEATC-FANNODE,FAN:VARIABLEVOLUME,MECHANICAL_7_Z38_SUPPLYFAN,Inlet,1
 Non-Parent Node Connection,MECHANICAL_7_Z38_SUPPLYEQUIPMENTOUTLETNODE,FAN:VARIABLEVOLUME,MECHANICAL_7_Z38_SUPPLYFAN,Outlet,1
 Non-Parent Node Connection,OFFICE_OPEN_7_Z39_HEATC-FANNODE,FAN:VARIABLEVOLUME,OFFICE_OPEN_7_Z39_SUPPLYFAN,Inlet,1
 Non-Parent Node Connection,OFFICE_OPEN_7_Z39_SUPPLYEQUIPMENTOUTLETNODE,FAN:VARIABLEVOLUME,OFFICE_OPEN_7_Z39_SUPPLYFAN,Outlet,1
 Non-Parent Node Connection,STORAGE_7_Z40_HEATC-FANNODE,FAN:VARIABLEVOLUME,STORAGE_7_Z40_SUPPLYFAN,Inlet,1
 Non-Parent Node Connection,STORAGE_7_Z40_SUPPLYEQUIPMENTOUTLETNODE,FAN:VARIABLEVOLUME,STORAGE_7_Z40_SUPPLYFAN,Outlet,1
 Non-Parent Node Connection,CONFERENCE_8_Z41_HEATC-FANNODE,FAN:VARIABLEVOLUME,CONFERENCE_8_Z41_SUPPLYFAN,Inlet,1
 Non-Parent Node Connection,CONFERENCE_8_Z41_SUPPLYEQUIPMENTOUTLETNODE,FAN:VARIABLEVOLUME,CONFERENCE_8_Z41_SUPPLYFAN,Outlet,1
 Non-Parent Node Connection,BREAK_ROOM_8_Z42_HEATC-FANNODE,FAN:VARIABLEVOLUME,BREAK_ROOM_8_Z42_SUPPLYFAN,Inlet,1
 Non-Parent Node Connection,BREAK_ROOM_8_Z42_SUPPLYEQUIPMENTOUTLETNODE,FAN:VARIABLEVOLUME,BREAK_ROOM_8_Z42_SUPPLYFAN,Outlet,1
 Non-Parent Node Connection,MECHANICAL_8_Z43_HEATC-FANNODE,FAN:VARIABLEVOLUME,MECHANICAL_8_Z43_SUPPLYFAN,Inlet,1
 Non-Parent Node Connection,MECHANICAL_8_Z43_SUPPLYEQUIPMENTOUTLETNODE,FAN:VARIABLEVOLUME,MECHANICAL_8_Z43_SUPPLYFAN,Outlet,1
 Non-Parent Node Connection,STORAGE_8_Z44_HEATC-FANNODE,FAN:VARIABLEVOLUME,STORAGE_8_Z44_SUPPLYFAN,Inlet,1
 Non-Parent Node Connection,STORAGE_8_Z44_SUPPLYEQUIPMENTOUTLETNODE,FAN:VARIABLEVOLUME,STORAGE_8_Z44_SUPPLYFAN,Outlet,1
 Non-Parent Node Connection,LOBBY_9_Z45_HEATC-FANNODE,FAN:VARIABLEVOLUME,LOBBY_9_Z45_SUPPLYFAN,Inlet,1
 Non-Parent Node Connection,LOBBY_9_Z45_SUPPLYEQUIPMENTOUTLETNODE,FAN:VARIABLEVOLUME,LOBBY_9_Z45_SUPPLYFAN,Outlet,1
 Non-Parent Node Connection,CONFERENCE_9_Z46_HEATC-FANNODE,FAN:VARIABLEVOLUME,CONFERENCE_9_Z46_SUPPLYFAN,Inlet,1
 Non-Parent Node Connection,CONFERENCE_9_Z46_SUPPLYEQUIPMENTOUTLETNODE,FAN:VARIABLEVOLUME,CONFERENCE_9_Z46_SUPPLYFAN,Outlet,1
 Non-Parent Node Connection,BREAK_ROOM_9_Z47_HEATC-FANNODE,FAN:VARIABLEVOLUME,BREAK_ROOM_9_Z47_SUPPLYFAN,Inlet,1
 Non-Parent Node Connection,BREAK_ROOM_9_Z47_SUPPLYEQUIPMENTOUTLETNODE,FAN:VARIABLEVOLUME,BREAK_ROOM_9_Z47_SUPPLYFAN,Outlet,1
 Non-Parent Node Connection,MECHANICAL_9_Z48_HEATC-FANNODE,FAN:VARIABLEVOLUME,MECHANICAL_9_Z48_SUPPLYFAN,Inlet,1
 Non-Parent Node Connection,MECHANICAL_9_Z48_SUPPLYEQUIPMENTOUTLETNODE,FAN:VARIABLEVOLUME,MECHANICAL_9_Z48_SUPPLYFAN,Outlet,1
 Non-Parent Node Connection,OFFICE_OPEN_9_Z49_HEATC-FANNODE,FAN:VARIABLEVOLUME,OFFICE_OPEN_9_Z49_SUPPLYFAN,Inlet,1
 Non-Parent Node Connection,OFFICE_OPEN_9_Z49_SUPPLYEQUIPMENTOUTLETNODE,FAN:VARIABLEVOLUME,OFFICE_OPEN_9_Z49_SUPPLYFAN,Outlet,1
 Non-Parent Node Connection,OFFICE_PRIVATE_9_Z50_HEATC-FANNODE,FAN:VARIABLEVOLUME,OFFICE_PRIVATE_9_Z50_SUPPLYFAN,Inlet,1
 Non-Parent Node Connection,OFFICE_PRIVATE_9_Z50_SUPPLYEQUIPMENTOUTLETNODE,FAN:VARIABLEVOLUME,OFFICE_PRIVATE_9_Z50_SUPPLYFAN,Outlet,1
 Non-Parent Node Connection,STORAGE_9_Z51_HEATC-FANNODE,FAN:VARIABLEVOLUME,STORAGE_9_Z51_SUPPLYFAN,Inlet,1
 Non-Parent Node Connection,STORAGE_9_Z51_SUPPLYEQUIPMENTOUTLETNODE,FAN:VARIABLEVOLUME,STORAGE_9_Z51_SUPPLYFAN,Outlet,1
 Non-Parent Node Connection,LOBBY_0_Z1_SUPPLYINLET,COIL:COOLING:DX:SINGLESPEED,LOBBY_0_Z1_COOLINGCOILDX,Inlet,1
 Non-Parent Node Connection,LOBBY_0_Z1_COOLC-HEATCNODE,COIL:COOLING:DX:SINGLESPEED,LOBBY_0_Z1_COOLINGCOILDX,Outlet,1
 Non-Parent Node Connection,CONFERENCE_0_Z2_SUPPLYINLET,COIL:COOLING:DX:SINGLESPEED,CONFERENCE_0_Z2_COOLINGCOILDX,Inlet,1
 Non-Parent Node Connection,CONFERENCE_0_Z2_COOLC-HEATCNODE,COIL:COOLING:DX:SINGLESPEED,CONFERENCE_0_Z2_COOLINGCOILDX,Outlet,1
 Non-Parent Node Connection,BREAK_ROOM_0_Z3_SUPPLYINLET,COIL:COOLING:DX:SINGLESPEED,BREAK_ROOM_0_Z3_COOLINGCOILDX,Inlet,1
 Non-Parent Node Connection,BREAK_ROOM_0_Z3_COOLC-HEATCNODE,COIL:COOLING:DX:SINGLESPEED,BREAK_ROOM_0_Z3_COOLINGCOILDX,Outlet,1
 Non-Parent Node Connection,MECHANICAL_0_Z4_SUPPLYINLET,COIL:COOLING:DX:SINGLESPEED,MECHANICAL_0_Z4_COOLINGCOILDX,Inlet,1
 Non-Parent Node Connection,MECHANICAL_0_Z4_COOLC-HEATCNODE,COIL:COOLING:DX:SINGLESPEED,MECHANICAL_0_Z4_COOLINGCOILDX,Outlet,1
 Non-Parent Node Connection,OFFICE_OPEN_0_Z5_SUPPLYINLET,COIL:COOLING:DX:SINGLESPEED,OFFICE_OPEN_0_Z5_COOLINGCOILDX,Inlet,1
 Non-Parent Node Connection,OFFICE_OPEN_0_Z5_COOLC-HEATCNODE,COIL:COOLING:DX:SINGLESPEED,OFFICE_OPEN_0_Z5_COOLINGCOILDX,Outlet,1
 Non-Parent Node Connection,STORAGE_0_Z6_SUPPLYINLET,COIL:COOLING:DX:SINGLESPEED,STORAGE_0_Z6_COOLINGCOILDX,Inlet,1
 Non-Parent Node Connection,STORAGE_0_Z6_COOLC-HEATCNODE,COIL:COOLING:DX:SINGLESPEED,STORAGE_0_Z6_COOLINGCOILDX,Outlet,1
 Non-Parent Node Connection,LOBBY_1_Z7_SUPPLYINLET,COIL:COOLING:DX:SINGLESPEED,LOBBY_1_Z7_COOLINGCOILDX,Inlet,1
 Non-Parent Node Connection,LOBBY_1_Z7_COOLC-HEATCNODE,COIL:COOLING:DX:SINGLESPEED,LOBBY_1_Z7_COOLINGCOILDX,Outlet,1
 Non-Parent Node Connection,OFFICE_OPEN_1_Z8_SUPPLYINLET,COIL:COOLING:DX:SINGLESPEED,OFFICE_OPEN_1_Z8_COOLINGCOILDX,Inlet,1
 Non-Parent Node Connection,OFFICE_OPEN_1_Z8_COOLC-HEATCNODE,COIL:COOLING:DX:SINGLESPEED,OFFICE_OPEN_1_Z8_COOLINGCOILDX,Outlet,1
 Non-Parent Node Connection,OFFICE_PRIVATE_1_Z9_SUPPLYINLET,COIL:COOLING:DX:SINGLESPEED,OFFICE_PRIVATE_1_Z9_COOLINGCOILDX,Inlet,1
 Non-Parent Node Connection,OFFICE_PRIVATE_1_Z9_COOLC-HEATCNODE,COIL:COOLING:DX:SINGLESPEED,OFFICE_PRIVATE_1_Z9_COOLINGCOILDX,Outlet,1
 Non-Parent Node Connection,STORAGE_1_Z10_SUPPLYINLET,COIL:COOLING:DX:SINGLESPEED,STORAGE_1_Z10_COOLINGCOILDX,Inlet,1
 Non-Parent Node Connection,STORAGE_1_Z10_COOLC-HEATCNODE,COIL:COOLING:DX:SINGLESPEED,STORAGE_1_Z10_COOLINGCOILDX,Outlet,1
 Non-Parent Node Connection,LOBBY_2_Z11_SUPPLYINLET,COIL:COOLING:DX:SINGLESPEED,LOBBY_2_Z11_COOLINGCOILDX,Inlet,1
 Non-Parent Node Connection,LOBBY_2_Z11_COOLC-HEATCNODE,COIL:COOLING:DX:SINGLESPEED,LOBBY_2_Z11_COOLINGCOILDX,Outlet,1
 Non-Parent Node Connection,CONFERENCE_2_Z12_SUPPLYINLET,COIL:COOLING:DX:SINGLESPEED,CONFERENCE_2_Z12_COOLINGCOILDX,Inlet,1
 Non-Parent Node Connection,CONFERENCE_2_Z12_COOLC-HEATCNODE,COIL:COOLING:DX:SINGLESPEED,CONFERENCE_2_Z12_COOLINGCOILDX,Outlet,1
 Non-Parent Node Connection,BREAK_ROOM_2_Z13_SUPPLYINLET,COIL:COOLING:DX:SINGLESPEED,BREAK_ROOM_2_Z13_COOLINGCOILDX,Inlet,1
 Non-Parent Node Connection,BREAK_ROOM_2_Z13_COOLC-HEATCNODE,COIL:COOLING:DX:SINGLESPEED,BREAK_ROOM_2_Z13_COOLINGCOILDX,Outlet,1
 Non-Parent Node Connection,OFFICE_OPEN_2_Z14_SUPPLYINLET,COIL:COOLING:DX:SINGLESPEED,OFFICE_OPEN_2_Z14_COOLINGCOILDX,Inlet,1
 Non-Parent Node Connection,OFFICE_OPEN_2_Z14_COOLC-HEATCNODE,COIL:COOLING:DX:SINGLESPEED,OFFICE_OPEN_2_Z14_COOLINGCOILDX,Outlet,1
 Non-Parent Node Connection,STORAGE_2_Z15_SUPPLYINLET,COIL:COOLING:DX:SINGLESPEED,STORAGE_2_Z15_COOLINGCOILDX,Inlet,1
 Non-Parent Node Connection,STORAGE_2_Z15_COOLC-HEATCNODE,COIL:COOLING:DX:SINGLESPEED,STORAGE_2_Z15_COOLINGCOILDX,Outlet,1
 Non-Parent Node Connection,LOBBY_3_Z16_SUPPLYINLET,COIL:COOLING:DX:SINGLESPEED,LOBBY_3_Z16_COOLINGCOILDX,Inlet,1
 Non-Parent Node Connection,LOBBY_3_Z16_COOLC-HEATCNODE,COIL:COOLING:DX:SINGLESPEED,LOBBY_3_Z16_COOLINGCOILDX,Outlet,1
 Non-Parent Node Connection,BREAK_ROOM_3_Z17_SUPPLYINLET,COIL:COOLING:DX:SINGLESPEED,BREAK_ROOM_3_Z17_COOLINGCOILDX,Inlet,1
 Non-Parent Node Connection,BREAK_ROOM_3_Z17_COOLC-HEATCNODE,COIL:COOLING:DX:SINGLESPEED,BREAK_ROOM_3_Z17_COOLINGCOILDX,Outlet,1
 Non-Parent Node Connection,MECHANICAL_3_Z18_SUPPLYINLET,COIL:COOLING:DX:SINGLESPEED,MECHANICAL_3_Z18_COOLINGCOILDX,Inlet,1
 Non-Parent Node Connection,MECHANICAL_3_Z18_COOLC-HEATCNODE,COIL:COOLING:DX:SINGLESPEED,MECHANICAL_3_Z18_COOLINGCOILDX,Outlet,1
 Non-Parent Node Connection,LOBBY_4_Z19_SUPPLYINLET,COIL:COOLING:DX:SINGLESPEED,LOBBY_4_Z19_COOLINGCOILDX,Inlet,1
 Non-Parent Node Connection,LOBBY_4_Z19_COOLC-HEATCNODE,COIL:COOLING:DX:SINGLESPEED,LOBBY_4_Z19_COOLINGCOILDX,Outlet,1
 Non-Parent Node Connection,CONFERENCE_4_Z20_SUPPLYINLET,COIL:COOLING:DX:SINGLESPEED,CONFERENCE_4_Z20_COOLINGCOILDX,Inlet,1
 Non-Parent Node Connection,CONFERENCE_4_Z20_COOLC-HEATCNODE,COIL:COOLING:DX:SINGLESPEED,CONFERENCE_4_Z20_COOLINGCOILDX,Outlet,1
 Non-Parent Node Connection,MECHANICAL_4_Z21_SUPPLYINLET,COIL:COOLING:DX:SINGLESPEED,MECHANICAL_4_Z21_COOLINGCOILDX,Inlet,1
 Non-Parent Node Connection,MECHANICAL_4_Z21_COOLC-HEATCNODE,COIL:COOLING:DX:SINGLESPEED,MECHANICAL_4_Z21_COOLINGCOILDX,Outlet,1
 Non-Parent Node Connection,OFFICE_OPEN_4_Z22_SUPPLYINLET,COIL:COOLING:DX:SINGLESPEED,OFFICE_OPEN_4_Z22_COOLINGCOILDX,Inlet,1
 Non-Parent Node Connection,OFFICE_OPEN_4_Z22_COOLC-HEATCNODE,COIL:COOLING:DX:SINGLESPEED,OFFICE_OPEN_4_Z22_COOLINGCOILDX,Outlet,1
 Non-Parent Node Connection,OFFICE_PRIVATE_4_Z23_SUPPLYINLET,COIL:COOLING:DX:SINGLESPEED,OFFICE_PRIVATE_4_Z23_COOLINGCOILDX,Inlet,1
 Non-Parent Node Connection,OFFICE_PRIVATE_4_Z23_COOLC-HEATCNODE,COIL:COOLING:DX:SINGLESPEED,OFFICE_PRIVATE_4_Z23_COOLINGCOILDX,Outlet,1
 Non-Parent Node Connection,STORAGE_4_Z24_SUPPLYINLET,COIL:COOLING:DX:SINGLESPEED,STORAGE_4_Z24_COOLINGCOILDX,Inlet,1
 Non-Parent Node Connection,STORAGE_4_Z24_COOLC-HEATCNODE,COIL:COOLING:DX:SINGLESPEED,STORAGE_4_Z24_COOLINGCOILDX,Outlet,1
 Non-Parent Node Connection,LOBBY_5_Z25_SUPPLYINLET,COIL:COOLING:DX:SINGLESPEED,LOBBY_5_Z25_COOLINGCOILDX,Inlet,1
 Non-Parent Node Connection,LOBBY_5_Z25_COOLC-HEATCNODE,COIL:COOLING:DX:SINGLESPEED,LOBBY_5_Z25_COOLINGCOILDX,Outlet,1
 Non-Parent Node Connection,CONFERENCE_5_Z26_SUPPLYINLET,COIL:COOLING:DX:SINGLESPEED,CONFERENCE_5_Z26_COOLINGCOILDX,Inlet,1
 Non-Parent Node Connection,CONFERENCE_5_Z26_COOLC-HEATCNODE,COIL:COOLING:DX:SINGLESPEED,CONFERENCE_5_Z26_COOLINGCOILDX,Outlet,1
 Non-Parent Node Connection,MECHANICAL_5_Z27_SUPPLYINLET,COIL:COOLING:DX:SINGLESPEED,MECHANICAL_5_Z27_COOLINGCOILDX,Inlet,1
 Non-Parent Node Connection,MECHANICAL_5_Z27_COOLC-HEATCNODE,COIL:COOLING:DX:SINGLESPEED,MECHANICAL_5_Z27_COOLINGCOILDX,Outlet,1
 Non-Parent Node Connection,OFFICE_PRIVATE_5_Z28_SUPPLYINLET,COIL:COOLING:DX:SINGLESPEED,OFFICE_PRIVATE_5_Z28_COOLINGCOILDX,Inlet,1
 Non-Parent Node Connection,OFFICE_PRIVATE_5_Z28_COOLC-HEATCNODE,COIL:COOLING:DX:SINGLESPEED,OFFICE_PRIVATE_5_Z28_COOLINGCOILDX,Outlet,1
 Non-Parent Node Connection,STORAGE_5_Z29_SUPPLYINLET,COIL:COOLING:DX:SINGLESPEED,STORAGE_5_Z29_COOLINGCOILDX,Inlet,1
 Non-Parent Node Connection,STORAGE_5_Z29_COOLC-HEATCNODE,COIL:COOLING:DX:SINGLESPEED,STORAGE_5_Z29_COOLINGCOILDX,Outlet,1
 Non-Parent Node Connection,LOBBY_6_Z30_SUPPLYINLET,COIL:COOLING:DX:SINGLESPEED,LOBBY_6_Z30_COOLINGCOILDX,Inlet,1
 Non-Parent Node Connection,LOBBY_6_Z30_COOLC-HEATCNODE,COIL:COOLING:DX:SINGLESPEED,LOBBY_6_Z30_COOLINGCOILDX,Outlet,1
 Non-Parent Node Connection,CONFERENCE_6_Z31_SUPPLYINLET,COIL:COOLING:DX:SINGLESPEED,CONFERENCE_6_Z31_COOLINGCOILDX,Inlet,1
 Non-Parent Node Connection,CONFERENCE_6_Z31_COOLC-HEATCNODE,COIL:COOLING:DX:SINGLESPEED,CONFERENCE_6_Z31_COOLINGCOILDX,Outlet,1
 Non-Parent Node Connection,BREAK_ROOM_6_Z32_SUPPLYINLET,COIL:COOLING:DX:SINGLESPEED,BREAK_ROOM_6_Z32_COOLINGCOILDX,Inlet,1
 Non-Parent Node Connection,BREAK_ROOM_6_Z32_COOLC-HEATCNODE,COIL:COOLING:DX:SINGLESPEED,BREAK_ROOM_6_Z32_COOLINGCOILDX,Outlet,1
 Non-Parent Node Connection,OFFICE_OPEN_6_Z33_SUPPLYINLET,COIL:COOLING:DX:SINGLESPEED,OFFICE_OPEN_6_Z33_COOLINGCOILDX,Inlet,1
 Non-Parent Node Connection,OFFICE_OPEN_6_Z33_COOLC-HEATCNODE,COIL:COOLING:DX:SINGLESPEED,OFFICE_OPEN_6_Z33_COOLINGCOILDX,Outlet,1
 Non-Parent Node Connection,OFFICE_PRIVATE_6_Z34_SUPPLYINLET,COIL:COOLING:DX:SINGLESPEED,OFFICE_PRIVATE_6_Z34_COOLINGCOILDX,Inlet,1
 Non-Parent Node Connection,OFFICE_PRIVATE_6_Z34_COOLC-HEATCNODE,COIL:COOLING:DX:SINGLESPEED,OFFICE_PRIVATE_6_Z34_COOLINGCOILDX,Outlet,1
 Non-Parent Node Connection,STORAGE_6_Z35_SUPPLYINLET,COIL:COOLING:DX:SINGLESPEED,STORAGE_6_Z35_COOLINGCOILDX,Inlet,1
 Non-Parent Node Connection,STORAGE_6_Z35_COOLC-HEATCNODE,COIL:COOLING:DX:SINGLESPEED,STORAGE_6_Z35_COOLINGCOILDX,Outlet,1
 Non-Parent Node Connection,LOBBY_7_Z36_SUPPLYINLET,COIL:COOLING:DX:SINGLESPEED,LOBBY_7_Z36_COOLINGCOILDX,Inlet,1
 Non-Parent Node Connection,LOBBY_7_Z36_COOLC-HEATCNODE,COIL:COOLING:DX:SINGLESPEED,LOBBY_7_Z36_COOLINGCOILDX,Outlet,1
 Non-Parent Node Connection,CONFERENCE_7_Z37_SUPPLYINLET,COIL:COOLING:DX:SINGLESPEED,CONFERENCE_7_Z37_COOLINGCOILDX,Inlet,1
 Non-Parent Node Connection,CONFERENCE_7_Z37_COOLC-HEATCNODE,COIL:COOLING:DX:SINGLESPEED,CONFERENCE_7_Z37_COOLINGCOILDX,Outlet,1
 Non-Parent Node Connection,MECHANICAL_7_Z38_SUPPLYINLET,COIL:COOLING:DX:SINGLESPEED,MECHANICAL_7_Z38_COOLINGCOILDX,Inlet,1
 Non-Parent Node Connection,MECHANICAL_7_Z38_COOLC-HEATCNODE,COIL:COOLING:DX:SINGLESPEED,MECHANICAL_7_Z38_COOLINGCOILDX,Outlet,1
 Non-Parent Node Connection,OFFICE_OPEN_7_Z39_SUPPLYINLET,COIL:COOLING:DX:SINGLESPEED,OFFICE_OPEN_7_Z39_COOLINGCOILDX,Inlet,1
 Non-Parent Node Connection,OFFICE_OPEN_7_Z39_COOLC-HEATCNODE,COIL:COOLING:DX:SINGLESPEED,OFFICE_OPEN_7_Z39_COOLINGCOILDX,Outlet,1
 Non-Parent Node Connection,STORAGE_7_Z40_SUPPLYINLET,COIL:COOLING:DX:SINGLESPEED,STORAGE_7_Z40_COOLINGCOILDX,Inlet,1
 Non-Parent Node Connection,STORAGE_7_Z40_COOLC-HEATCNODE,COIL:COOLING:DX:SINGLESPEED,STORAGE_7_Z40_COOLINGCOILDX,Outlet,1
 Non-Parent Node Connection,CONFERENCE_8_Z41_SUPPLYINLET,COIL:COOLING:DX:SINGLESPEED,CONFERENCE_8_Z41_COOLINGCOILDX,Inlet,1
 Non-Parent Node Connection,CONFERENCE_8_Z41_COOLC-HEATCNODE,COIL:COOLING:DX:SINGLESPEED,CONFERENCE_8_Z41_COOLINGCOILDX,Outlet,1
 Non-Parent Node Connection,BREAK_ROOM_8_Z42_SUPPLYINLET,COIL:COOLING:DX:SINGLESPEED,BREAK_ROOM_8_Z42_COOLINGCOILDX,Inlet,1
 Non-Parent Node Connection,BREAK_ROOM_8_Z42_COOLC-HEATCNODE,COIL:COOLING:DX:SINGLESPEED,BREAK_ROOM_8_Z42_COOLINGCOILDX,Outlet,1
 Non-Parent Node Connection,MECHANICAL_8_Z43_SUPPLYINLET,COIL:COOLING:DX:SINGLESPEED,MECHANICAL_8_Z43_COOLINGCOILDX,Inlet,1
 Non-Parent Node Connection,MECHANICAL_8_Z43_COOLC-HEATCNODE,COIL:COOLING:DX:SINGLESPEED,MECHANICAL_8_Z43_COOLINGCOILDX,Outlet,1
 Non-Parent Node Connection,STORAGE_8_Z44_SUPPLYINLET,COIL:COOLING:DX:SINGLESPEED,STORAGE_8_Z44_COOLINGCOILDX,Inlet,1
 Non-Parent Node Connection,STORAGE_8_Z44_COOLC-HEATCNODE,COIL:COOLING:DX:SINGLESPEED,STORAGE_8_Z44_COOLINGCOILDX,Outlet,1
 Non-Parent Node Connection,LOBBY_9_Z45_SUPPLYINLET,COIL:COOLING:DX:SINGLESPEED,LOBBY_9_Z45_COOLINGCOILDX,Inlet,1
 Non-Parent Node Connection,LOBBY_9_Z45_COOLC-HEATCNODE,COIL:COOLING:DX:SINGLESPEED,LOBBY_9_Z45_COOLINGCOILDX,Outlet,1
 Non-Parent Node Connection,CONFERENCE_9_Z46_SUPPLYINLET,COIL:COOLING:DX:SINGLESPEED,CONFERENCE_9_Z46_COOLINGCOILDX,Inlet,1
 Non-Parent Node Connection,CONFERENCE_9_Z46_COOLC-HEATCNODE,COIL:COOLING:DX:SINGLESPEED,CONFERENCE_9_Z46_COOLINGCOILDX,Outlet,1
 Non-Parent Node Connection,BREAK_ROOM_9_Z47_SUPPLYINLET,COIL:COOLING:DX:SINGLESPEED,BREAK_ROOM_9_Z47_COOLINGCOILDX,Inlet,1
 Non-Parent Node Connection,BREAK_ROOM_9_Z47_COOLC-HEATCNODE,COIL:COOLING:DX:SINGLESPEED,BREAK_ROOM_9_Z47_COOLINGCOILDX,Outlet,1
 Non-Parent Node Connection,MECHANICAL_9_Z48_SUPPLYINLET,COIL:COOLING:DX:SINGLESPEED,MECHANICAL_9_Z48_COOLINGCOILDX,Inlet,1
 Non-Parent Node Connection,MECHANICAL_9_Z48_COOLC-HEATCNODE,COIL:COOLING:DX:SINGLESPEED,MECHANICAL_9_Z48_COOLINGCOILDX,Outlet,1
 Non-Parent Node Connection,OFFICE_OPEN_9_Z49_SUPPLYINLET,COIL:COOLING:DX:SINGLESPEED,OFFICE_OPEN_9_Z49_COOLINGCOILDX,Inlet,1
 Non-Parent Node Connection,OFFICE_OPEN_9_Z49_COOLC-HEATCNODE,COIL:COOLING:DX:SINGLESPEED,OFFICE_OPEN_9_Z49_COOLINGCOILDX,Outlet,1
 Non-Parent Node Connection,OFFICE_PRIVATE_9_Z50_SUPPLYINLET,COIL:COOLING:DX:SINGLESPEED,OFFICE_PRIVATE_9_Z50_COOLINGCOILDX,Inlet,1
 Non-Parent Node Connection,OFFICE_PRIVATE_9_Z50_COOLC-HEATCNODE,COIL:COOLING:DX:SINGLESPEED,OFFICE_PRIVATE_9_Z50_COOLINGCOILDX,Outlet,1
 Non-Parent Node Connection,STORAGE_9_Z51_SUPPLYINLET,COIL:COOLING:DX:SINGLESPEED,STORAGE_9_Z51_COOLINGCOILDX,Inlet,1
 Non-Parent Node Connection,STORAGE_9_Z51_COOLC-HEATCNODE,COIL:COOLING:DX:SINGLESPEED,STORAGE_9_Z51_COOLINGCOILDX,Outlet,1
