Program Version,EnergyPlus, Version 24.2.0-94a887817b, YMD=2025.11.03 09:35
! This file shows details about the branches, nodes, and other
! elements of the flow connections.
! This file is intended for use in "debugging" potential problems
! that may also be detected by the program, but may be more easily
! identified by "eye".
! This file is also intended to support software which draws a
! schematic diagram of the HVAC system.
! ===============================================================
! #Nodes,<Number of Unique Nodes>
 #Nodes,1430
! <Node>,<NodeNumber>,<Node Name>,<Node Fluid Type>,<# Times Node Referenced After Definition>
 Node,1,LOBBY_0_Z1_ADUOUTLET,Air,4
 Node,2,CONFERENCE_0_Z2_ADUOUTLET,Air,4
 Node,3,BREAK_ROOM_0_Z3_ADUOUTLET,Air,4
 Node,4,MECHANICAL_0_Z4_ADUOUTLET,Air,4
 Node,5,OFFICE_OPEN_0_0_0_Z5_ADUOUTLET,Air,4
 Node,6,OFFICE_PRIVATE_0_0_1_Z6_ADUOUTLET,Air,4
 Node,7,STORAGE_0_0_2_Z7_ADUOUTLET,Air,4
 Node,8,OFFICE_OPEN_0_1_0_Z8_ADUOUTLET,Air,4
 Node,9,OFFICE_PRIVATE_0_1_1_Z9_ADUOUTLET,Air,4
 Node,10,STORAGE_0_1_2_Z10_ADUOUTLET,Air,4
 Node,11,OFFICE_OPEN_0_2_0_Z11_ADUOUTLET,Air,4
 Node,12,OFFICE_PRIVATE_0_2_1_Z12_ADUOUTLET,Air,4
 Node,13,STORAGE_0_2_2_Z13_ADUOUTLET,Air,4
 Node,14,LOBBY_1_Z14_ADUOUTLET,Air,4
 Node,15,CONFERENCE_1_Z15_ADUOUTLET,Air,4
 Node,16,BREAK_ROOM_1_Z16_ADUOUTLET,Air,4
 Node,17,MECHANICAL_1_Z17_ADUOUTLET,Air,4
 Node,18,OFFICE_OPEN_1_0_0_Z18_ADUOUTLET,Air,4
 Node,19,OFFICE_PRIVATE_1_0_1_Z19_ADUOUTLET,Air,4
 Node,20,STORAGE_1_0_2_Z20_ADUOUTLET,Air,4
 Node,21,OFFICE_OPEN_1_1_0_Z21_ADUOUTLET,Air,4
 Node,22,OFFICE_PRIVATE_1_1_1_Z22_ADUOUTLET,Air,4
 Node,23,STORAGE_1_1_2_Z23_ADUOUTLET,Air,4
 Node,24,OFFICE_OPEN_1_2_0_Z24_ADUOUTLET,Air,4
 Node,25,OFFICE_PRIVATE_1_2_1_Z25_ADUOUTLET,Air,4
 Node,26,STORAGE_1_2_2_Z26_ADUOUTLET,Air,4
 Node,27,LOBBY_2_Z27_ADUOUTLET,Air,4
 Node,28,CONFERENCE_2_Z28_ADUOUTLET,Air,4
 Node,29,BREAK_ROOM_2_Z29_ADUOUTLET,Air,4
 Node,30,MECHANICAL_2_Z30_ADUOUTLET,Air,4
 Node,31,OFFICE_OPEN_2_0_0_Z31_ADUOUTLET,Air,4
 Node,32,OFFICE_PRIVATE_2_0_1_Z32_ADUOUTLET,Air,4
 Node,33,STORAGE_2_0_2_Z33_ADUOUTLET,Air,4
 Node,34,OFFICE_OPEN_2_1_0_Z34_ADUOUTLET,Air,4
 Node,35,OFFICE_PRIVATE_2_1_1_Z35_ADUOUTLET,Air,4
 Node,36,STORAGE_2_1_2_Z36_ADUOUTLET,Air,4
 Node,37,OFFICE_OPEN_2_2_0_Z37_ADUOUTLET,Air,4
 Node,38,OFFICE_PRIVATE_2_2_1_Z38_ADUOUTLET,Air,4
 Node,39,STORAGE_2_2_2_Z39_ADUOUTLET,Air,4
 Node,40,LOBBY_3_Z40_ADUOUTLET,Air,4
 Node,41,CONFERENCE_3_Z41_ADUOUTLET,Air,4
 Node,42,BREAK_ROOM_3_Z42_ADUOUTLET,Air,4
 Node,43,MECHANICAL_3_Z43_ADUOUTLET,Air,4
 Node,44,OFFICE_OPEN_3_0_0_Z44_ADUOUTLET,Air,4
 Node,45,OFFICE_PRIVATE_3_0_1_Z45_ADUOUTLET,Air,4
 Node,46,STORAGE_3_0_2_Z46_ADUOUTLET,Air,4
 Node,47,OFFICE_OPEN_3_1_0_Z47_ADUOUTLET,Air,4
 Node,48,OFFICE_PRIVATE_3_1_1_Z48_ADUOUTLET,Air,4
 Node,49,STORAGE_3_1_2_Z49_ADUOUTLET,Air,4
 Node,50,OFFICE_OPEN_3_2_0_Z50_ADUOUTLET,Air,4
 Node,51,OFFICE_PRIVATE_3_2_1_Z51_ADUOUTLET,Air,4
 Node,52,STORAGE_3_2_2_Z52_ADUOUTLET,Air,4
 Node,53,LOBBY_4_Z53_ADUOUTLET,Air,4
 Node,54,CONFERENCE_4_Z54_ADUOUTLET,Air,4
 Node,55,BREAK_ROOM_4_Z55_ADUOUTLET,Air,4
 Node,56,MECHANICAL_4_Z56_ADUOUTLET,Air,4
 Node,57,OFFICE_OPEN_4_0_0_Z57_ADUOUTLET,Air,4
 Node,58,OFFICE_PRIVATE_4_0_1_Z58_ADUOUTLET,Air,4
 Node,59,STORAGE_4_0_2_Z59_ADUOUTLET,Air,4
 Node,60,OFFICE_OPEN_4_1_0_Z60_ADUOUTLET,Air,4
 Node,61,OFFICE_PRIVATE_4_1_1_Z61_ADUOUTLET,Air,4
 Node,62,STORAGE_4_1_2_Z62_ADUOUTLET,Air,4
 Node,63,OFFICE_OPEN_4_2_0_Z63_ADUOUTLET,Air,4
 Node,64,OFFICE_PRIVATE_4_2_1_Z64_ADUOUTLET,Air,4
 Node,65,STORAGE_4_2_2_Z65_ADUOUTLET,Air,4
 Node,66,LOBBY_5_Z66_ADUOUTLET,Air,4
 Node,67,CONFERENCE_5_Z67_ADUOUTLET,Air,4
 Node,68,BREAK_ROOM_5_Z68_ADUOUTLET,Air,4
 Node,69,MECHANICAL_5_Z69_ADUOUTLET,Air,4
 Node,70,OFFICE_OPEN_5_0_0_Z70_ADUOUTLET,Air,4
 Node,71,OFFICE_PRIVATE_5_0_1_Z71_ADUOUTLET,Air,4
 Node,72,STORAGE_5_0_2_Z72_ADUOUTLET,Air,4
 Node,73,OFFICE_OPEN_5_1_0_Z73_ADUOUTLET,Air,4
 Node,74,OFFICE_PRIVATE_5_1_1_Z74_ADUOUTLET,Air,4
 Node,75,STORAGE_5_1_2_Z75_ADUOUTLET,Air,4
 Node,76,OFFICE_OPEN_5_2_0_Z76_ADUOUTLET,Air,4
 Node,77,OFFICE_PRIVATE_5_2_1_Z77_ADUOUTLET,Air,4
 Node,78,STORAGE_5_2_2_Z78_ADUOUTLET,Air,4
 Node,79,LOBBY_6_Z79_ADUOUTLET,Air,4
 Node,80,CONFERENCE_6_Z80_ADUOUTLET,Air,4
 Node,81,BREAK_ROOM_6_Z81_ADUOUTLET,Air,4
 Node,82,MECHANICAL_6_Z82_ADUOUTLET,Air,4
 Node,83,OFFICE_OPEN_6_0_0_Z83_ADUOUTLET,Air,4
 Node,84,OFFICE_PRIVATE_6_0_1_Z84_ADUOUTLET,Air,4
 Node,85,STORAGE_6_0_2_Z85_ADUOUTLET,Air,4
 Node,86,OFFICE_OPEN_6_1_0_Z86_ADUOUTLET,Air,4
 Node,87,OFFICE_PRIVATE_6_1_1_Z87_ADUOUTLET,Air,4
 Node,88,STORAGE_6_1_2_Z88_ADUOUTLET,Air,4
 Node,89,OFFICE_OPEN_6_2_0_Z89_ADUOUTLET,Air,4
 Node,90,OFFICE_PRIVATE_6_2_1_Z90_ADUOUTLET,Air,4
 Node,91,STORAGE_6_2_2_Z91_ADUOUTLET,Air,4
 Node,92,LOBBY_7_Z92_ADUOUTLET,Air,4
 Node,93,CONFERENCE_7_Z93_ADUOUTLET,Air,4
 Node,94,BREAK_ROOM_7_Z94_ADUOUTLET,Air,4
 Node,95,MECHANICAL_7_Z95_ADUOUTLET,Air,4
 Node,96,OFFICE_OPEN_7_0_0_Z96_ADUOUTLET,Air,4
 Node,97,OFFICE_PRIVATE_7_0_1_Z97_ADUOUTLET,Air,4
 Node,98,STORAGE_7_0_2_Z98_ADUOUTLET,Air,4
 Node,99,OFFICE_OPEN_7_1_0_Z99_ADUOUTLET,Air,4
 Node,100,OFFICE_PRIVATE_7_1_1_Z100_ADUOUTLET,Air,4
 Node,101,STORAGE_7_1_2_Z101_ADUOUTLET,Air,4
 Node,102,OFFICE_OPEN_7_2_0_Z102_ADUOUTLET,Air,4
 Node,103,OFFICE_PRIVATE_7_2_1_Z103_ADUOUTLET,Air,4
 Node,104,STORAGE_7_2_2_Z104_ADUOUTLET,Air,4
 Node,105,LOBBY_8_Z105_ADUOUTLET,Air,4
 Node,106,CONFERENCE_8_Z106_ADUOUTLET,Air,4
 Node,107,BREAK_ROOM_8_Z107_ADUOUTLET,Air,4
 Node,108,MECHANICAL_8_Z108_ADUOUTLET,Air,4
 Node,109,OFFICE_OPEN_8_0_0_Z109_ADUOUTLET,Air,4
 Node,110,OFFICE_PRIVATE_8_0_1_Z110_ADUOUTLET,Air,4
 Node,111,STORAGE_8_0_2_Z111_ADUOUTLET,Air,4
 Node,112,OFFICE_OPEN_8_1_0_Z112_ADUOUTLET,Air,4
 Node,113,OFFICE_PRIVATE_8_1_1_Z113_ADUOUTLET,Air,4
 Node,114,STORAGE_8_1_2_Z114_ADUOUTLET,Air,4
 Node,115,OFFICE_OPEN_8_2_0_Z115_ADUOUTLET,Air,4
 Node,116,OFFICE_PRIVATE_8_2_1_Z116_ADUOUTLET,Air,4
 Node,117,STORAGE_8_2_2_Z117_ADUOUTLET,Air,4
 Node,118,LOBBY_9_Z118_ADUOUTLET,Air,4
 Node,119,CONFERENCE_9_Z119_ADUOUTLET,Air,4
 Node,120,BREAK_ROOM_9_Z120_ADUOUTLET,Air,4
 Node,121,MECHANICAL_9_Z121_ADUOUTLET,Air,4
 Node,122,OFFICE_OPEN_9_0_0_Z122_ADUOUTLET,Air,4
 Node,123,OFFICE_PRIVATE_9_0_1_Z123_ADUOUTLET,Air,4
 Node,124,STORAGE_9_0_2_Z124_ADUOUTLET,Air,4
 Node,125,OFFICE_OPEN_9_1_0_Z125_ADUOUTLET,Air,4
 Node,126,OFFICE_PRIVATE_9_1_1_Z126_ADUOUTLET,Air,4
 Node,127,STORAGE_9_1_2_Z127_ADUOUTLET,Air,4
 Node,128,OFFICE_OPEN_9_2_0_Z128_ADUOUTLET,Air,4
 Node,129,OFFICE_PRIVATE_9_2_1_Z129_ADUOUTLET,Air,4
 Node,130,STORAGE_9_2_2_Z130_ADUOUTLET,Air,4
 Node,131,LOBBY_0_Z1_SUPPLYINLET,Air,3
 Node,132,LOBBY_0_Z1_COOLC-HEATCNODE,Air,6
 Node,133,LOBBY_0_Z1_HEATC-FANNODE,Air,5
 Node,134,LOBBY_0_Z1_SUPPLYEQUIPMENTOUTLETNODE,Air,3
 Node,135,CONFERENCE_0_Z2_SUPPLYINLET,Air,3
 Node,136,CONFERENCE_0_Z2_COOLC-HEATCNODE,Air,6
 Node,137,CONFERENCE_0_Z2_HEATC-FANNODE,Air,5
 Node,138,CONFERENCE_0_Z2_SUPPLYEQUIPMENTOUTLETNODE,Air,3
 Node,139,BREAK_ROOM_0_Z3_SUPPLYINLET,Air,3
 Node,140,BREAK_ROOM_0_Z3_COOLC-HEATCNODE,Air,6
 Node,141,BREAK_ROOM_0_Z3_HEATC-FANNODE,Air,5
 Node,142,BREAK_ROOM_0_Z3_SUPPLYEQUIPMENTOUTLETNODE,Air,3
 Node,143,MECHANICAL_0_Z4_SUPPLYINLET,Air,3
 Node,144,MECHANICAL_0_Z4_COOLC-HEATCNODE,Air,6
 Node,145,MECHANICAL_0_Z4_HEATC-FANNODE,Air,5
 Node,146,MECHANICAL_0_Z4_SUPPLYEQUIPMENTOUTLETNODE,Air,3
 Node,147,OFFICE_OPEN_0_0_0_Z5_SUPPLYINLET,Air,3
 Node,148,OFFICE_OPEN_0_0_0_Z5_COOLC-HEATCNODE,Air,6
 Node,149,OFFICE_OPEN_0_0_0_Z5_HEATC-FANNODE,Air,5
 Node,150,OFFICE_OPEN_0_0_0_Z5_SUPPLYEQUIPMENTOUTLETNODE,Air,3
 Node,151,OFFICE_PRIVATE_0_0_1_Z6_SUPPLYINLET,Air,3
 Node,152,OFFICE_PRIVATE_0_0_1_Z6_COOLC-HEATCNODE,Air,6
 Node,153,OFFICE_PRIVATE_0_0_1_Z6_HEATC-FANNODE,Air,5
 Node,154,OFFICE_PRIVATE_0_0_1_Z6_SUPPLYEQUIPMENTOUTLETNODE,Air,3
 Node,155,STORAGE_0_0_2_Z7_SUPPLYINLET,Air,3
 Node,156,STORAGE_0_0_2_Z7_COOLC-HEATCNODE,Air,6
 Node,157,STORAGE_0_0_2_Z7_HEATC-FANNODE,Air,5
 Node,158,STORAGE_0_0_2_Z7_SUPPLYEQUIPMENTOUTLETNODE,Air,3
 Node,159,OFFICE_OPEN_0_1_0_Z8_SUPPLYINLET,Air,3
 Node,160,OFFICE_OPEN_0_1_0_Z8_COOLC-HEATCNODE,Air,6
 Node,161,OFFICE_OPEN_0_1_0_Z8_HEATC-FANNODE,Air,5
 Node,162,OFFICE_OPEN_0_1_0_Z8_SUPPLYEQUIPMENTOUTLETNODE,Air,3
 Node,163,OFFICE_PRIVATE_0_1_1_Z9_SUPPLYINLET,Air,3
 Node,164,OFFICE_PRIVATE_0_1_1_Z9_COOLC-HEATCNODE,Air,6
 Node,165,OFFICE_PRIVATE_0_1_1_Z9_HEATC-FANNODE,Air,5
 Node,166,OFFICE_PRIVATE_0_1_1_Z9_SUPPLYEQUIPMENTOUTLETNODE,Air,3
 Node,167,STORAGE_0_1_2_Z10_SUPPLYINLET,Air,3
 Node,168,STORAGE_0_1_2_Z10_COOLC-HEATCNODE,Air,6
 Node,169,STORAGE_0_1_2_Z10_HEATC-FANNODE,Air,5
 Node,170,STORAGE_0_1_2_Z10_SUPPLYEQUIPMENTOUTLETNODE,Air,3
 Node,171,OFFICE_OPEN_0_2_0_Z11_SUPPLYINLET,Air,3
 Node,172,OFFICE_OPEN_0_2_0_Z11_COOLC-HEATCNODE,Air,6
 Node,173,OFFICE_OPEN_0_2_0_Z11_HEATC-FANNODE,Air,5
 Node,174,OFFICE_OPEN_0_2_0_Z11_SUPPLYEQUIPMENTOUTLETNODE,Air,3
 Node,175,OFFICE_PRIVATE_0_2_1_Z12_SUPPLYINLET,Air,3
 Node,176,OFFICE_PRIVATE_0_2_1_Z12_COOLC-HEATCNODE,Air,6
 Node,177,OFFICE_PRIVATE_0_2_1_Z12_HEATC-FANNODE,Air,5
 Node,178,OFFICE_PRIVATE_0_2_1_Z12_SUPPLYEQUIPMENTOUTLETNODE,Air,3
 Node,179,STORAGE_0_2_2_Z13_SUPPLYINLET,Air,3
 Node,180,STORAGE_0_2_2_Z13_COOLC-HEATCNODE,Air,6
 Node,181,STORAGE_0_2_2_Z13_HEATC-FANNODE,Air,5
 Node,182,STORAGE_0_2_2_Z13_SUPPLYEQUIPMENTOUTLETNODE,Air,3
 Node,183,LOBBY_1_Z14_SUPPLYINLET,Air,3
 Node,184,LOBBY_1_Z14_COOLC-HEATCNODE,Air,6
 Node,185,LOBBY_1_Z14_HEATC-FANNODE,Air,5
 Node,186,LOBBY_1_Z14_SUPPLYEQUIPMENTOUTLETNODE,Air,3
 Node,187,CONFERENCE_1_Z15_SUPPLYINLET,Air,3
 Node,188,CONFERENCE_1_Z15_COOLC-HEATCNODE,Air,6
 Node,189,CONFERENCE_1_Z15_HEATC-FANNODE,Air,5
 Node,190,CONFERENCE_1_Z15_SUPPLYEQUIPMENTOUTLETNODE,Air,3
 Node,191,BREAK_ROOM_1_Z16_SUPPLYINLET,Air,3
 Node,192,BREAK_ROOM_1_Z16_COOLC-HEATCNODE,Air,6
 Node,193,BREAK_ROOM_1_Z16_HEATC-FANNODE,Air,5
 Node,194,BREAK_ROOM_1_Z16_SUPPLYEQUIPMENTOUTLETNODE,Air,3
 Node,195,MECHANICAL_1_Z17_SUPPLYINLET,Air,3
 Node,196,MECHANICAL_1_Z17_COOLC-HEATCNODE,Air,6
 Node,197,MECHANICAL_1_Z17_HEATC-FANNODE,Air,5
 Node,198,MECHANICAL_1_Z17_SUPPLYEQUIPMENTOUTLETNODE,Air,3
 Node,199,OFFICE_OPEN_1_0_0_Z18_SUPPLYINLET,Air,3
 Node,200,OFFICE_OPEN_1_0_0_Z18_COOLC-HEATCNODE,Air,6
 Node,201,OFFICE_OPEN_1_0_0_Z18_HEATC-FANNODE,Air,5
 Node,202,OFFICE_OPEN_1_0_0_Z18_SUPPLYEQUIPMENTOUTLETNODE,Air,3
 Node,203,OFFICE_PRIVATE_1_0_1_Z19_SUPPLYINLET,Air,3
 Node,204,OFFICE_PRIVATE_1_0_1_Z19_COOLC-HEATCNODE,Air,6
 Node,205,OFFICE_PRIVATE_1_0_1_Z19_HEATC-FANNODE,Air,5
 Node,206,OFFICE_PRIVATE_1_0_1_Z19_SUPPLYEQUIPMENTOUTLETNODE,Air,3
 Node,207,STORAGE_1_0_2_Z20_SUPPLYINLET,Air,3
 Node,208,STORAGE_1_0_2_Z20_COOLC-HEATCNODE,Air,6
 Node,209,STORAGE_1_0_2_Z20_HEATC-FANNODE,Air,5
 Node,210,STORAGE_1_0_2_Z20_SUPPLYEQUIPMENTOUTLETNODE,Air,3
 Node,211,OFFICE_OPEN_1_1_0_Z21_SUPPLYINLET,Air,3
 Node,212,OFFICE_OPEN_1_1_0_Z21_COOLC-HEATCNODE,Air,6
 Node,213,OFFICE_OPEN_1_1_0_Z21_HEATC-FANNODE,Air,5
 Node,214,OFFICE_OPEN_1_1_0_Z21_SUPPLYEQUIPMENTOUTLETNODE,Air,3
 Node,215,OFFICE_PRIVATE_1_1_1_Z22_SUPPLYINLET,Air,3
 Node,216,OFFICE_PRIVATE_1_1_1_Z22_COOLC-HEATCNODE,Air,6
 Node,217,OFFICE_PRIVATE_1_1_1_Z22_HEATC-FANNODE,Air,5
 Node,218,OFFICE_PRIVATE_1_1_1_Z22_SUPPLYEQUIPMENTOUTLETNODE,Air,3
 Node,219,STORAGE_1_1_2_Z23_SUPPLYINLET,Air,3
 Node,220,STORAGE_1_1_2_Z23_COOLC-HEATCNODE,Air,6
 Node,221,STORAGE_1_1_2_Z23_HEATC-FANNODE,Air,5
 Node,222,STORAGE_1_1_2_Z23_SUPPLYEQUIPMENTOUTLETNODE,Air,3
 Node,223,OFFICE_OPEN_1_2_0_Z24_SUPPLYINLET,Air,3
 Node,224,OFFICE_OPEN_1_2_0_Z24_COOLC-HEATCNODE,Air,6
 Node,225,OFFICE_OPEN_1_2_0_Z24_HEATC-FANNODE,Air,5
 Node,226,OFFICE_OPEN_1_2_0_Z24_SUPPLYEQUIPMENTOUTLETNODE,Air,3
 Node,227,OFFICE_PRIVATE_1_2_1_Z25_SUPPLYINLET,Air,3
 Node,228,OFFICE_PRIVATE_1_2_1_Z25_COOLC-HEATCNODE,Air,6
 Node,229,OFFICE_PRIVATE_1_2_1_Z25_HEATC-FANNODE,Air,5
 Node,230,OFFICE_PRIVATE_1_2_1_Z25_SUPPLYEQUIPMENTOUTLETNODE,Air,3
 Node,231,STORAGE_1_2_2_Z26_SUPPLYINLET,Air,3
 Node,232,STORAGE_1_2_2_Z26_COOLC-HEATCNODE,Air,6
 Node,233,STORAGE_1_2_2_Z26_HEATC-FANNODE,Air,5
 Node,234,STORAGE_1_2_2_Z26_SUPPLYEQUIPMENTOUTLETNODE,Air,3
 Node,235,LOBBY_2_Z27_SUPPLYINLET,Air,3
 Node,236,LOBBY_2_Z27_COOLC-HEATCNODE,Air,6
 Node,237,LOBBY_2_Z27_HEATC-FANNODE,Air,5
 Node,238,LOBBY_2_Z27_SUPPLYEQUIPMENTOUTLETNODE,Air,3
 Node,239,CONFERENCE_2_Z28_SUPPLYINLET,Air,3
 Node,240,CONFERENCE_2_Z28_COOLC-HEATCNODE,Air,6
 Node,241,CONFERENCE_2_Z28_HEATC-FANNODE,Air,5
 Node,242,CONFERENCE_2_Z28_SUPPLYEQUIPMENTOUTLETNODE,Air,3
 Node,243,BREAK_ROOM_2_Z29_SUPPLYINLET,Air,3
 Node,244,BREAK_ROOM_2_Z29_COOLC-HEATCNODE,Air,6
 Node,245,BREAK_ROOM_2_Z29_HEATC-FANNODE,Air,5
 Node,246,BREAK_ROOM_2_Z29_SUPPLYEQUIPMENTOUTLETNODE,Air,3
 Node,247,MECHANICAL_2_Z30_SUPPLYINLET,Air,3
 Node,248,MECHANICAL_2_Z30_COOLC-HEATCNODE,Air,6
 Node,249,MECHANICAL_2_Z30_HEATC-FANNODE,Air,5
 Node,250,MECHANICAL_2_Z30_SUPPLYEQUIPMENTOUTLETNODE,Air,3
 Node,251,OFFICE_OPEN_2_0_0_Z31_SUPPLYINLET,Air,3
 Node,252,OFFICE_OPEN_2_0_0_Z31_COOLC-HEATCNODE,Air,6
 Node,253,OFFICE_OPEN_2_0_0_Z31_HEATC-FANNODE,Air,5
 Node,254,OFFICE_OPEN_2_0_0_Z31_SUPPLYEQUIPMENTOUTLETNODE,Air,3
 Node,255,OFFICE_PRIVATE_2_0_1_Z32_SUPPLYINLET,Air,3
 Node,256,OFFICE_PRIVATE_2_0_1_Z32_COOLC-HEATCNODE,Air,6
 Node,257,OFFICE_PRIVATE_2_0_1_Z32_HEATC-FANNODE,Air,5
 Node,258,OFFICE_PRIVATE_2_0_1_Z32_SUPPLYEQUIPMENTOUTLETNODE,Air,3
 Node,259,STORAGE_2_0_2_Z33_SUPPLYINLET,Air,3
 Node,260,STORAGE_2_0_2_Z33_COOLC-HEATCNODE,Air,6
 Node,261,STORAGE_2_0_2_Z33_HEATC-FANNODE,Air,5
 Node,262,STORAGE_2_0_2_Z33_SUPPLYEQUIPMENTOUTLETNODE,Air,3
 Node,263,OFFICE_OPEN_2_1_0_Z34_SUPPLYINLET,Air,3
 Node,264,OFFICE_OPEN_2_1_0_Z34_COOLC-HEATCNODE,Air,6
 Node,265,OFFICE_OPEN_2_1_0_Z34_HEATC-FANNODE,Air,5
 Node,266,OFFICE_OPEN_2_1_0_Z34_SUPPLYEQUIPMENTOUTLETNODE,Air,3
 Node,267,OFFICE_PRIVATE_2_1_1_Z35_SUPPLYINLET,Air,3
 Node,268,OFFICE_PRIVATE_2_1_1_Z35_COOLC-HEATCNODE,Air,6
 Node,269,OFFICE_PRIVATE_2_1_1_Z35_HEATC-FANNODE,Air,5
 Node,270,OFFICE_PRIVATE_2_1_1_Z35_SUPPLYEQUIPMENTOUTLETNODE,Air,3
 Node,271,STORAGE_2_1_2_Z36_SUPPLYINLET,Air,3
 Node,272,STORAGE_2_1_2_Z36_COOLC-HEATCNODE,Air,6
 Node,273,STORAGE_2_1_2_Z36_HEATC-FANNODE,Air,5
 Node,274,STORAGE_2_1_2_Z36_SUPPLYEQUIPMENTOUTLETNODE,Air,3
 Node,275,OFFICE_OPEN_2_2_0_Z37_SUPPLYINLET,Air,3
 Node,276,OFFICE_OPEN_2_2_0_Z37_COOLC-HEATCNODE,Air,6
 Node,277,OFFICE_OPEN_2_2_0_Z37_HEATC-FANNODE,Air,5
 Node,278,OFFICE_OPEN_2_2_0_Z37_SUPPLYEQUIPMENTOUTLETNODE,Air,3
 Node,279,OFFICE_PRIVATE_2_2_1_Z38_SUPPLYINLET,Air,3
 Node,280,OFFICE_PRIVATE_2_2_1_Z38_COOLC-HEATCNODE,Air,6
 Node,281,OFFICE_PRIVATE_2_2_1_Z38_HEATC-FANNODE,Air,5
 Node,282,OFFICE_PRIVATE_2_2_1_Z38_SUPPLYEQUIPMENTOUTLETNODE,Air,3
 Node,283,STORAGE_2_2_2_Z39_SUPPLYINLET,Air,3
 Node,284,STORAGE_2_2_2_Z39_COOLC-HEATCNODE,Air,6
 Node,285,STORAGE_2_2_2_Z39_HEATC-FANNODE,Air,5
 Node,286,STORAGE_2_2_2_Z39_SUPPLYEQUIPMENTOUTLETNODE,Air,3
 Node,287,LOBBY_3_Z40_SUPPLYINLET,Air,3
 Node,288,LOBBY_3_Z40_COOLC-HEATCNODE,Air,6
 Node,289,LOBBY_3_Z40_HEATC-FANNODE,Air,5
 Node,290,LOBBY_3_Z40_SUPPLYEQUIPMENTOUTLETNODE,Air,3
 Node,291,CONFERENCE_3_Z41_SUPPLYINLET,Air,3
 Node,292,CONFERENCE_3_Z41_COOLC-HEATCNODE,Air,6
 Node,293,CONFERENCE_3_Z41_HEATC-FANNODE,Air,5
 Node,294,CONFERENCE_3_Z41_SUPPLYEQUIPMENTOUTLETNODE,Air,3
 Node,295,BREAK_ROOM_3_Z42_SUPPLYINLET,Air,3
 Node,296,BREAK_ROOM_3_Z42_COOLC-HEATCNODE,Air,6
 Node,297,BREAK_ROOM_3_Z42_HEATC-FANNODE,Air,5
 Node,298,BREAK_ROOM_3_Z42_SUPPLYEQUIPMENTOUTLETNODE,Air,3
 Node,299,MECHANICAL_3_Z43_SUPPLYINLET,Air,3
 Node,300,MECHANICAL_3_Z43_COOLC-HEATCNODE,Air,6
 Node,301,MECHANICAL_3_Z43_HEATC-FANNODE,Air,5
 Node,302,MECHANICAL_3_Z43_SUPPLYEQUIPMENTOUTLETNODE,Air,3
 Node,303,OFFICE_OPEN_3_0_0_Z44_SUPPLYINLET,Air,3
 Node,304,OFFICE_OPEN_3_0_0_Z44_COOLC-HEATCNODE,Air,6
 Node,305,OFFICE_OPEN_3_0_0_Z44_HEATC-FANNODE,Air,5
 Node,306,OFFICE_OPEN_3_0_0_Z44_SUPPLYEQUIPMENTOUTLETNODE,Air,3
 Node,307,OFFICE_PRIVATE_3_0_1_Z45_SUPPLYINLET,Air,3
 Node,308,OFFICE_PRIVATE_3_0_1_Z45_COOLC-HEATCNODE,Air,6
 Node,309,OFFICE_PRIVATE_3_0_1_Z45_HEATC-FANNODE,Air,5
 Node,310,OFFICE_PRIVATE_3_0_1_Z45_SUPPLYEQUIPMENTOUTLETNODE,Air,3
 Node,311,STORAGE_3_0_2_Z46_SUPPLYINLET,Air,3
 Node,312,STORAGE_3_0_2_Z46_COOLC-HEATCNODE,Air,6
 Node,313,STORAGE_3_0_2_Z46_HEATC-FANNODE,Air,5
 Node,314,STORAGE_3_0_2_Z46_SUPPLYEQUIPMENTOUTLETNODE,Air,3
 Node,315,OFFICE_OPEN_3_1_0_Z47_SUPPLYINLET,Air,3
 Node,316,OFFICE_OPEN_3_1_0_Z47_COOLC-HEATCNODE,Air,6
 Node,317,OFFICE_OPEN_3_1_0_Z47_HEATC-FANNODE,Air,5
 Node,318,OFFICE_OPEN_3_1_0_Z47_SUPPLYEQUIPMENTOUTLETNODE,Air,3
 Node,319,OFFICE_PRIVATE_3_1_1_Z48_SUPPLYINLET,Air,3
 Node,320,OFFICE_PRIVATE_3_1_1_Z48_COOLC-HEATCNODE,Air,6
 Node,321,OFFICE_PRIVATE_3_1_1_Z48_HEATC-FANNODE,Air,5
 Node,322,OFFICE_PRIVATE_3_1_1_Z48_SUPPLYEQUIPMENTOUTLETNODE,Air,3
 Node,323,STORAGE_3_1_2_Z49_SUPPLYINLET,Air,3
 Node,324,STORAGE_3_1_2_Z49_COOLC-HEATCNODE,Air,6
 Node,325,STORAGE_3_1_2_Z49_HEATC-FANNODE,Air,5
 Node,326,STORAGE_3_1_2_Z49_SUPPLYEQUIPMENTOUTLETNODE,Air,3
 Node,327,OFFICE_OPEN_3_2_0_Z50_SUPPLYINLET,Air,3
 Node,328,OFFICE_OPEN_3_2_0_Z50_COOLC-HEATCNODE,Air,6
 Node,329,OFFICE_OPEN_3_2_0_Z50_HEATC-FANNODE,Air,5
 Node,330,OFFICE_OPEN_3_2_0_Z50_SUPPLYEQUIPMENTOUTLETNODE,Air,3
 Node,331,OFFICE_PRIVATE_3_2_1_Z51_SUPPLYINLET,Air,3
 Node,332,OFFICE_PRIVATE_3_2_1_Z51_COOLC-HEATCNODE,Air,6
 Node,333,OFFICE_PRIVATE_3_2_1_Z51_HEATC-FANNODE,Air,5
 Node,334,OFFICE_PRIVATE_3_2_1_Z51_SUPPLYEQUIPMENTOUTLETNODE,Air,3
 Node,335,STORAGE_3_2_2_Z52_SUPPLYINLET,Air,3
 Node,336,STORAGE_3_2_2_Z52_COOLC-HEATCNODE,Air,6
 Node,337,STORAGE_3_2_2_Z52_HEATC-FANNODE,Air,5
 Node,338,STORAGE_3_2_2_Z52_SUPPLYEQUIPMENTOUTLETNODE,Air,3
 Node,339,LOBBY_4_Z53_SUPPLYINLET,Air,3
 Node,340,LOBBY_4_Z53_COOLC-HEATCNODE,Air,6
 Node,341,LOBBY_4_Z53_HEATC-FANNODE,Air,5
 Node,342,LOBBY_4_Z53_SUPPLYEQUIPMENTOUTLETNODE,Air,3
 Node,343,CONFERENCE_4_Z54_SUPPLYINLET,Air,3
 Node,344,CONFERENCE_4_Z54_COOLC-HEATCNODE,Air,6
 Node,345,CONFERENCE_4_Z54_HEATC-FANNODE,Air,5
 Node,346,CONFERENCE_4_Z54_SUPPLYEQUIPMENTOUTLETNODE,Air,3
 Node,347,BREAK_ROOM_4_Z55_SUPPLYINLET,Air,3
 Node,348,BREAK_ROOM_4_Z55_COOLC-HEATCNODE,Air,6
 Node,349,BREAK_ROOM_4_Z55_HEATC-FANNODE,Air,5
 Node,350,BREAK_ROOM_4_Z55_SUPPLYEQUIPMENTOUTLETNODE,Air,3
 Node,351,MECHANICAL_4_Z56_SUPPLYINLET,Air,3
 Node,352,MECHANICAL_4_Z56_COOLC-HEATCNODE,Air,6
 Node,353,MECHANICAL_4_Z56_HEATC-FANNODE,Air,5
 Node,354,MECHANICAL_4_Z56_SUPPLYEQUIPMENTOUTLETNODE,Air,3
 Node,355,OFFICE_OPEN_4_0_0_Z57_SUPPLYINLET,Air,3
 Node,356,OFFICE_OPEN_4_0_0_Z57_COOLC-HEATCNODE,Air,6
 Node,357,OFFICE_OPEN_4_0_0_Z57_HEATC-FANNODE,Air,5
 Node,358,OFFICE_OPEN_4_0_0_Z57_SUPPLYEQUIPMENTOUTLETNODE,Air,3
 Node,359,OFFICE_PRIVATE_4_0_1_Z58_SUPPLYINLET,Air,3
 Node,360,OFFICE_PRIVATE_4_0_1_Z58_COOLC-HEATCNODE,Air,6
 Node,361,OFFICE_PRIVATE_4_0_1_Z58_HEATC-FANNODE,Air,5
 Node,362,OFFICE_PRIVATE_4_0_1_Z58_SUPPLYEQUIPMENTOUTLETNODE,Air,3
 Node,363,STORAGE_4_0_2_Z59_SUPPLYINLET,Air,3
 Node,364,STORAGE_4_0_2_Z59_COOLC-HEATCNODE,Air,6
 Node,365,STORAGE_4_0_2_Z59_HEATC-FANNODE,Air,5
 Node,366,STORAGE_4_0_2_Z59_SUPPLYEQUIPMENTOUTLETNODE,Air,3
 Node,367,OFFICE_OPEN_4_1_0_Z60_SUPPLYINLET,Air,3
 Node,368,OFFICE_OPEN_4_1_0_Z60_COOLC-HEATCNODE,Air,6
 Node,369,OFFICE_OPEN_4_1_0_Z60_HEATC-FANNODE,Air,5
 Node,370,OFFICE_OPEN_4_1_0_Z60_SUPPLYEQUIPMENTOUTLETNODE,Air,3
 Node,371,OFFICE_PRIVATE_4_1_1_Z61_SUPPLYINLET,Air,3
 Node,372,OFFICE_PRIVATE_4_1_1_Z61_COOLC-HEATCNODE,Air,6
 Node,373,OFFICE_PRIVATE_4_1_1_Z61_HEATC-FANNODE,Air,5
 Node,374,OFFICE_PRIVATE_4_1_1_Z61_SUPPLYEQUIPMENTOUTLETNODE,Air,3
 Node,375,STORAGE_4_1_2_Z62_SUPPLYINLET,Air,3
 Node,376,STORAGE_4_1_2_Z62_COOLC-HEATCNODE,Air,6
 Node,377,STORAGE_4_1_2_Z62_HEATC-FANNODE,Air,5
 Node,378,STORAGE_4_1_2_Z62_SUPPLYEQUIPMENTOUTLETNODE,Air,3
 Node,379,OFFICE_OPEN_4_2_0_Z63_SUPPLYINLET,Air,3
 Node,380,OFFICE_OPEN_4_2_0_Z63_COOLC-HEATCNODE,Air,6
 Node,381,OFFICE_OPEN_4_2_0_Z63_HEATC-FANNODE,Air,5
 Node,382,OFFICE_OPEN_4_2_0_Z63_SUPPLYEQUIPMENTOUTLETNODE,Air,3
 Node,383,OFFICE_PRIVATE_4_2_1_Z64_SUPPLYINLET,Air,3
 Node,384,OFFICE_PRIVATE_4_2_1_Z64_COOLC-HEATCNODE,Air,6
 Node,385,OFFICE_PRIVATE_4_2_1_Z64_HEATC-FANNODE,Air,5
 Node,386,OFFICE_PRIVATE_4_2_1_Z64_SUPPLYEQUIPMENTOUTLETNODE,Air,3
 Node,387,STORAGE_4_2_2_Z65_SUPPLYINLET,Air,3
 Node,388,STORAGE_4_2_2_Z65_COOLC-HEATCNODE,Air,6
 Node,389,STORAGE_4_2_2_Z65_HEATC-FANNODE,Air,5
 Node,390,STORAGE_4_2_2_Z65_SUPPLYEQUIPMENTOUTLETNODE,Air,3
 Node,391,LOBBY_5_Z66_SUPPLYINLET,Air,3
 Node,392,LOBBY_5_Z66_COOLC-HEATCNODE,Air,6
 Node,393,LOBBY_5_Z66_HEATC-FANNODE,Air,5
 Node,394,LOBBY_5_Z66_SUPPLYEQUIPMENTOUTLETNODE,Air,3
 Node,395,CONFERENCE_5_Z67_SUPPLYINLET,Air,3
 Node,396,CONFERENCE_5_Z67_COOLC-HEATCNODE,Air,6
 Node,397,CONFERENCE_5_Z67_HEATC-FANNODE,Air,5
 Node,398,CONFERENCE_5_Z67_SUPPLYEQUIPMENTOUTLETNODE,Air,3
 Node,399,BREAK_ROOM_5_Z68_SUPPLYINLET,Air,3
 Node,400,BREAK_ROOM_5_Z68_COOLC-HEATCNODE,Air,6
 Node,401,BREAK_ROOM_5_Z68_HEATC-FANNODE,Air,5
 Node,402,BREAK_ROOM_5_Z68_SUPPLYEQUIPMENTOUTLETNODE,Air,3
 Node,403,MECHANICAL_5_Z69_SUPPLYINLET,Air,3
 Node,404,MECHANICAL_5_Z69_COOLC-HEATCNODE,Air,6
 Node,405,MECHANICAL_5_Z69_HEATC-FANNODE,Air,5
 Node,406,MECHANICAL_5_Z69_SUPPLYEQUIPMENTOUTLETNODE,Air,3
 Node,407,OFFICE_OPEN_5_0_0_Z70_SUPPLYINLET,Air,3
 Node,408,OFFICE_OPEN_5_0_0_Z70_COOLC-HEATCNODE,Air,6
 Node,409,OFFICE_OPEN_5_0_0_Z70_HEATC-FANNODE,Air,5
 Node,410,OFFICE_OPEN_5_0_0_Z70_SUPPLYEQUIPMENTOUTLETNODE,Air,3
 Node,411,OFFICE_PRIVATE_5_0_1_Z71_SUPPLYINLET,Air,3
 Node,412,OFFICE_PRIVATE_5_0_1_Z71_COOLC-HEATCNODE,Air,6
 Node,413,OFFICE_PRIVATE_5_0_1_Z71_HEATC-FANNODE,Air,5
 Node,414,OFFICE_PRIVATE_5_0_1_Z71_SUPPLYEQUIPMENTOUTLETNODE,Air,3
 Node,415,STORAGE_5_0_2_Z72_SUPPLYINLET,Air,3
 Node,416,STORAGE_5_0_2_Z72_COOLC-HEATCNODE,Air,6
 Node,417,STORAGE_5_0_2_Z72_HEATC-FANNODE,Air,5
 Node,418,STORAGE_5_0_2_Z72_SUPPLYEQUIPMENTOUTLETNODE,Air,3
 Node,419,OFFICE_OPEN_5_1_0_Z73_SUPPLYINLET,Air,3
 Node,420,OFFICE_OPEN_5_1_0_Z73_COOLC-HEATCNODE,Air,6
 Node,421,OFFICE_OPEN_5_1_0_Z73_HEATC-FANNODE,Air,5
 Node,422,OFFICE_OPEN_5_1_0_Z73_SUPPLYEQUIPMENTOUTLETNODE,Air,3
 Node,423,OFFICE_PRIVATE_5_1_1_Z74_SUPPLYINLET,Air,3
 Node,424,OFFICE_PRIVATE_5_1_1_Z74_COOLC-HEATCNODE,Air,6
 Node,425,OFFICE_PRIVATE_5_1_1_Z74_HEATC-FANNODE,Air,5
 Node,426,OFFICE_PRIVATE_5_1_1_Z74_SUPPLYEQUIPMENTOUTLETNODE,Air,3
 Node,427,STORAGE_5_1_2_Z75_SUPPLYINLET,Air,3
 Node,428,STORAGE_5_1_2_Z75_COOLC-HEATCNODE,Air,6
 Node,429,STORAGE_5_1_2_Z75_HEATC-FANNODE,Air,5
 Node,430,STORAGE_5_1_2_Z75_SUPPLYEQUIPMENTOUTLETNODE,Air,3
 Node,431,OFFICE_OPEN_5_2_0_Z76_SUPPLYINLET,Air,3
 Node,432,OFFICE_OPEN_5_2_0_Z76_COOLC-HEATCNODE,Air,6
 Node,433,OFFICE_OPEN_5_2_0_Z76_HEATC-FANNODE,Air,5
 Node,434,OFFICE_OPEN_5_2_0_Z76_SUPPLYEQUIPMENTOUTLETNODE,Air,3
 Node,435,OFFICE_PRIVATE_5_2_1_Z77_SUPPLYINLET,Air,3
 Node,436,OFFICE_PRIVATE_5_2_1_Z77_COOLC-HEATCNODE,Air,6
 Node,437,OFFICE_PRIVATE_5_2_1_Z77_HEATC-FANNODE,Air,5
 Node,438,OFFICE_PRIVATE_5_2_1_Z77_SUPPLYEQUIPMENTOUTLETNODE,Air,3
 Node,439,STORAGE_5_2_2_Z78_SUPPLYINLET,Air,3
 Node,440,STORAGE_5_2_2_Z78_COOLC-HEATCNODE,Air,6
 Node,441,STORAGE_5_2_2_Z78_HEATC-FANNODE,Air,5
 Node,442,STORAGE_5_2_2_Z78_SUPPLYEQUIPMENTOUTLETNODE,Air,3
 Node,443,LOBBY_6_Z79_SUPPLYINLET,Air,3
 Node,444,LOBBY_6_Z79_COOLC-HEATCNODE,Air,6
 Node,445,LOBBY_6_Z79_HEATC-FANNODE,Air,5
 Node,446,LOBBY_6_Z79_SUPPLYEQUIPMENTOUTLETNODE,Air,3
 Node,447,CONFERENCE_6_Z80_SUPPLYINLET,Air,3
 Node,448,CONFERENCE_6_Z80_COOLC-HEATCNODE,Air,6
 Node,449,CONFERENCE_6_Z80_HEATC-FANNODE,Air,5
 Node,450,CONFERENCE_6_Z80_SUPPLYEQUIPMENTOUTLETNODE,Air,3
 Node,451,BREAK_ROOM_6_Z81_SUPPLYINLET,Air,3
 Node,452,BREAK_ROOM_6_Z81_COOLC-HEATCNODE,Air,6
 Node,453,BREAK_ROOM_6_Z81_HEATC-FANNODE,Air,5
 Node,454,BREAK_ROOM_6_Z81_SUPPLYEQUIPMENTOUTLETNODE,Air,3
 Node,455,MECHANICAL_6_Z82_SUPPLYINLET,Air,3
 Node,456,MECHANICAL_6_Z82_COOLC-HEATCNODE,Air,6
 Node,457,MECHANICAL_6_Z82_HEATC-FANNODE,Air,5
 Node,458,MECHANICAL_6_Z82_SUPPLYEQUIPMENTOUTLETNODE,Air,3
 Node,459,OFFICE_OPEN_6_0_0_Z83_SUPPLYINLET,Air,3
 Node,460,OFFICE_OPEN_6_0_0_Z83_COOLC-HEATCNODE,Air,6
 Node,461,OFFICE_OPEN_6_0_0_Z83_HEATC-FANNODE,Air,5
 Node,462,OFFICE_OPEN_6_0_0_Z83_SUPPLYEQUIPMENTOUTLETNODE,Air,3
 Node,463,OFFICE_PRIVATE_6_0_1_Z84_SUPPLYINLET,Air,3
 Node,464,OFFICE_PRIVATE_6_0_1_Z84_COOLC-HEATCNODE,Air,6
 Node,465,OFFICE_PRIVATE_6_0_1_Z84_HEATC-FANNODE,Air,5
 Node,466,OFFICE_PRIVATE_6_0_1_Z84_SUPPLYEQUIPMENTOUTLETNODE,Air,3
 Node,467,STORAGE_6_0_2_Z85_SUPPLYINLET,Air,3
 Node,468,STORAGE_6_0_2_Z85_COOLC-HEATCNODE,Air,6
 Node,469,STORAGE_6_0_2_Z85_HEATC-FANNODE,Air,5
 Node,470,STORAGE_6_0_2_Z85_SUPPLYEQUIPMENTOUTLETNODE,Air,3
 Node,471,OFFICE_OPEN_6_1_0_Z86_SUPPLYINLET,Air,3
 Node,472,OFFICE_OPEN_6_1_0_Z86_COOLC-HEATCNODE,Air,6
 Node,473,OFFICE_OPEN_6_1_0_Z86_HEATC-FANNODE,Air,5
 Node,474,OFFICE_OPEN_6_1_0_Z86_SUPPLYEQUIPMENTOUTLETNODE,Air,3
 Node,475,OFFICE_PRIVATE_6_1_1_Z87_SUPPLYINLET,Air,3
 Node,476,OFFICE_PRIVATE_6_1_1_Z87_COOLC-HEATCNODE,Air,6
 Node,477,OFFICE_PRIVATE_6_1_1_Z87_HEATC-FANNODE,Air,5
 Node,478,OFFICE_PRIVATE_6_1_1_Z87_SUPPLYEQUIPMENTOUTLETNODE,Air,3
 Node,479,STORAGE_6_1_2_Z88_SUPPLYINLET,Air,3
 Node,480,STORAGE_6_1_2_Z88_COOLC-HEATCNODE,Air,6
 Node,481,STORAGE_6_1_2_Z88_HEATC-FANNODE,Air,5
 Node,482,STORAGE_6_1_2_Z88_SUPPLYEQUIPMENTOUTLETNODE,Air,3
 Node,483,OFFICE_OPEN_6_2_0_Z89_SUPPLYINLET,Air,3
 Node,484,OFFICE_OPEN_6_2_0_Z89_COOLC-HEATCNODE,Air,6
 Node,485,OFFICE_OPEN_6_2_0_Z89_HEATC-FANNODE,Air,5
 Node,486,OFFICE_OPEN_6_2_0_Z89_SUPPLYEQUIPMENTOUTLETNODE,Air,3
 Node,487,OFFICE_PRIVATE_6_2_1_Z90_SUPPLYINLET,Air,3
 Node,488,OFFICE_PRIVATE_6_2_1_Z90_COOLC-HEATCNODE,Air,6
 Node,489,OFFICE_PRIVATE_6_2_1_Z90_HEATC-FANNODE,Air,5
 Node,490,OFFICE_PRIVATE_6_2_1_Z90_SUPPLYEQUIPMENTOUTLETNODE,Air,3
 Node,491,STORAGE_6_2_2_Z91_SUPPLYINLET,Air,3
 Node,492,STORAGE_6_2_2_Z91_COOLC-HEATCNODE,Air,6
 Node,493,STORAGE_6_2_2_Z91_HEATC-FANNODE,Air,5
 Node,494,STORAGE_6_2_2_Z91_SUPPLYEQUIPMENTOUTLETNODE,Air,3
 Node,495,LOBBY_7_Z92_SUPPLYINLET,Air,3
 Node,496,LOBBY_7_Z92_COOLC-HEATCNODE,Air,6
 Node,497,LOBBY_7_Z92_HEATC-FANNODE,Air,5
 Node,498,LOBBY_7_Z92_SUPPLYEQUIPMENTOUTLETNODE,Air,3
 Node,499,CONFERENCE_7_Z93_SUPPLYINLET,Air,3
 Node,500,CONFERENCE_7_Z93_COOLC-HEATCNODE,Air,6
 Node,501,CONFERENCE_7_Z93_HEATC-FANNODE,Air,5
 Node,502,CONFERENCE_7_Z93_SUPPLYEQUIPMENTOUTLETNODE,Air,3
 Node,503,BREAK_ROOM_7_Z94_SUPPLYINLET,Air,3
 Node,504,BREAK_ROOM_7_Z94_COOLC-HEATCNODE,Air,6
 Node,505,BREAK_ROOM_7_Z94_HEATC-FANNODE,Air,5
 Node,506,BREAK_ROOM_7_Z94_SUPPLYEQUIPMENTOUTLETNODE,Air,3
 Node,507,MECHANICAL_7_Z95_SUPPLYINLET,Air,3
 Node,508,MECHANICAL_7_Z95_COOLC-HEATCNODE,Air,6
 Node,509,MECHANICAL_7_Z95_HEATC-FANNODE,Air,5
 Node,510,MECHANICAL_7_Z95_SUPPLYEQUIPMENTOUTLETNODE,Air,3
 Node,511,OFFICE_OPEN_7_0_0_Z96_SUPPLYINLET,Air,3
 Node,512,OFFICE_OPEN_7_0_0_Z96_COOLC-HEATCNODE,Air,6
 Node,513,OFFICE_OPEN_7_0_0_Z96_HEATC-FANNODE,Air,5
 Node,514,OFFICE_OPEN_7_0_0_Z96_SUPPLYEQUIPMENTOUTLETNODE,Air,3
 Node,515,OFFICE_PRIVATE_7_0_1_Z97_SUPPLYINLET,Air,3
 Node,516,OFFICE_PRIVATE_7_0_1_Z97_COOLC-HEATCNODE,Air,6
 Node,517,OFFICE_PRIVATE_7_0_1_Z97_HEATC-FANNODE,Air,5
 Node,518,OFFICE_PRIVATE_7_0_1_Z97_SUPPLYEQUIPMENTOUTLETNODE,Air,3
 Node,519,STORAGE_7_0_2_Z98_SUPPLYINLET,Air,3
 Node,520,STORAGE_7_0_2_Z98_COOLC-HEATCNODE,Air,6
 Node,521,STORAGE_7_0_2_Z98_HEATC-FANNODE,Air,5
 Node,522,STORAGE_7_0_2_Z98_SUPPLYEQUIPMENTOUTLETNODE,Air,3
 Node,523,OFFICE_OPEN_7_1_0_Z99_SUPPLYINLET,Air,3
 Node,524,OFFICE_OPEN_7_1_0_Z99_COOLC-HEATCNODE,Air,6
 Node,525,OFFICE_OPEN_7_1_0_Z99_HEATC-FANNODE,Air,5
 Node,526,OFFICE_OPEN_7_1_0_Z99_SUPPLYEQUIPMENTOUTLETNODE,Air,3
 Node,527,OFFICE_PRIVATE_7_1_1_Z100_SUPPLYINLET,Air,3
 Node,528,OFFICE_PRIVATE_7_1_1_Z100_COOLC-HEATCNODE,Air,6
 Node,529,OFFICE_PRIVATE_7_1_1_Z100_HEATC-FANNODE,Air,5
 Node,530,OFFICE_PRIVATE_7_1_1_Z100_SUPPLYEQUIPMENTOUTLETNODE,Air,3
 Node,531,STORAGE_7_1_2_Z101_SUPPLYINLET,Air,3
 Node,532,STORAGE_7_1_2_Z101_COOLC-HEATCNODE,Air,6
 Node,533,STORAGE_7_1_2_Z101_HEATC-FANNODE,Air,5
 Node,534,STORAGE_7_1_2_Z101_SUPPLYEQUIPMENTOUTLETNODE,Air,3
 Node,535,OFFICE_OPEN_7_2_0_Z102_SUPPLYINLET,Air,3
 Node,536,OFFICE_OPEN_7_2_0_Z102_COOLC-HEATCNODE,Air,6
 Node,537,OFFICE_OPEN_7_2_0_Z102_HEATC-FANNODE,Air,5
 Node,538,OFFICE_OPEN_7_2_0_Z102_SUPPLYEQUIPMENTOUTLETNODE,Air,3
 Node,539,OFFICE_PRIVATE_7_2_1_Z103_SUPPLYINLET,Air,3
 Node,540,OFFICE_PRIVATE_7_2_1_Z103_COOLC-HEATCNODE,Air,6
 Node,541,OFFICE_PRIVATE_7_2_1_Z103_HEATC-FANNODE,Air,5
 Node,542,OFFICE_PRIVATE_7_2_1_Z103_SUPPLYEQUIPMENTOUTLETNODE,Air,3
 Node,543,STORAGE_7_2_2_Z104_SUPPLYINLET,Air,3
 Node,544,STORAGE_7_2_2_Z104_COOLC-HEATCNODE,Air,6
 Node,545,STORAGE_7_2_2_Z104_HEATC-FANNODE,Air,5
 Node,546,STORAGE_7_2_2_Z104_SUPPLYEQUIPMENTOUTLETNODE,Air,3
 Node,547,LOBBY_8_Z105_SUPPLYINLET,Air,3
 Node,548,LOBBY_8_Z105_COOLC-HEATCNODE,Air,6
 Node,549,LOBBY_8_Z105_HEATC-FANNODE,Air,5
 Node,550,LOBBY_8_Z105_SUPPLYEQUIPMENTOUTLETNODE,Air,3
 Node,551,CONFERENCE_8_Z106_SUPPLYINLET,Air,3
 Node,552,CONFERENCE_8_Z106_COOLC-HEATCNODE,Air,6
 Node,553,CONFERENCE_8_Z106_HEATC-FANNODE,Air,5
 Node,554,CONFERENCE_8_Z106_SUPPLYEQUIPMENTOUTLETNODE,Air,3
 Node,555,BREAK_ROOM_8_Z107_SUPPLYINLET,Air,3
 Node,556,BREAK_ROOM_8_Z107_COOLC-HEATCNODE,Air,6
 Node,557,BREAK_ROOM_8_Z107_HEATC-FANNODE,Air,5
 Node,558,BREAK_ROOM_8_Z107_SUPPLYEQUIPMENTOUTLETNODE,Air,3
 Node,559,MECHANICAL_8_Z108_SUPPLYINLET,Air,3
 Node,560,MECHANICAL_8_Z108_COOLC-HEATCNODE,Air,6
 Node,561,MECHANICAL_8_Z108_HEATC-FANNODE,Air,5
 Node,562,MECHANICAL_8_Z108_SUPPLYEQUIPMENTOUTLETNODE,Air,3
 Node,563,OFFICE_OPEN_8_0_0_Z109_SUPPLYINLET,Air,3
 Node,564,OFFICE_OPEN_8_0_0_Z109_COOLC-HEATCNODE,Air,6
 Node,565,OFFICE_OPEN_8_0_0_Z109_HEATC-FANNODE,Air,5
 Node,566,OFFICE_OPEN_8_0_0_Z109_SUPPLYEQUIPMENTOUTLETNODE,Air,3
 Node,567,OFFICE_PRIVATE_8_0_1_Z110_SUPPLYINLET,Air,3
 Node,568,OFFICE_PRIVATE_8_0_1_Z110_COOLC-HEATCNODE,Air,6
 Node,569,OFFICE_PRIVATE_8_0_1_Z110_HEATC-FANNODE,Air,5
 Node,570,OFFICE_PRIVATE_8_0_1_Z110_SUPPLYEQUIPMENTOUTLETNODE,Air,3
 Node,571,STORAGE_8_0_2_Z111_SUPPLYINLET,Air,3
 Node,572,STORAGE_8_0_2_Z111_COOLC-HEATCNODE,Air,6
 Node,573,STORAGE_8_0_2_Z111_HEATC-FANNODE,Air,5
 Node,574,STORAGE_8_0_2_Z111_SUPPLYEQUIPMENTOUTLETNODE,Air,3
 Node,575,OFFICE_OPEN_8_1_0_Z112_SUPPLYINLET,Air,3
 Node,576,OFFICE_OPEN_8_1_0_Z112_COOLC-HEATCNODE,Air,6
 Node,577,OFFICE_OPEN_8_1_0_Z112_HEATC-FANNODE,Air,5
 Node,578,OFFICE_OPEN_8_1_0_Z112_SUPPLYEQUIPMENTOUTLETNODE,Air,3
 Node,579,OFFICE_PRIVATE_8_1_1_Z113_SUPPLYINLET,Air,3
 Node,580,OFFICE_PRIVATE_8_1_1_Z113_COOLC-HEATCNODE,Air,6
 Node,581,OFFICE_PRIVATE_8_1_1_Z113_HEATC-FANNODE,Air,5
 Node,582,OFFICE_PRIVATE_8_1_1_Z113_SUPPLYEQUIPMENTOUTLETNODE,Air,3
 Node,583,STORAGE_8_1_2_Z114_SUPPLYINLET,Air,3
 Node,584,STORAGE_8_1_2_Z114_COOLC-HEATCNODE,Air,6
 Node,585,STORAGE_8_1_2_Z114_HEATC-FANNODE,Air,5
 Node,586,STORAGE_8_1_2_Z114_SUPPLYEQUIPMENTOUTLETNODE,Air,3
 Node,587,OFFICE_OPEN_8_2_0_Z115_SUPPLYINLET,Air,3
 Node,588,OFFICE_OPEN_8_2_0_Z115_COOLC-HEATCNODE,Air,6
 Node,589,OFFICE_OPEN_8_2_0_Z115_HEATC-FANNODE,Air,5
 Node,590,OFFICE_OPEN_8_2_0_Z115_SUPPLYEQUIPMENTOUTLETNODE,Air,3
 Node,591,OFFICE_PRIVATE_8_2_1_Z116_SUPPLYINLET,Air,3
 Node,592,OFFICE_PRIVATE_8_2_1_Z116_COOLC-HEATCNODE,Air,6
 Node,593,OFFICE_PRIVATE_8_2_1_Z116_HEATC-FANNODE,Air,5
 Node,594,OFFICE_PRIVATE_8_2_1_Z116_SUPPLYEQUIPMENTOUTLETNODE,Air,3
 Node,595,STORAGE_8_2_2_Z117_SUPPLYINLET,Air,3
 Node,596,STORAGE_8_2_2_Z117_COOLC-HEATCNODE,Air,6
 Node,597,STORAGE_8_2_2_Z117_HEATC-FANNODE,Air,5
 Node,598,STORAGE_8_2_2_Z117_SUPPLYEQUIPMENTOUTLETNODE,Air,3
 Node,599,LOBBY_9_Z118_SUPPLYINLET,Air,3
 Node,600,LOBBY_9_Z118_COOLC-HEATCNODE,Air,6
 Node,601,LOBBY_9_Z118_HEATC-FANNODE,Air,5
 Node,602,LOBBY_9_Z118_SUPPLYEQUIPMENTOUTLETNODE,Air,3
 Node,603,CONFERENCE_9_Z119_SUPPLYINLET,Air,3
 Node,604,CONFERENCE_9_Z119_COOLC-HEATCNODE,Air,6
 Node,605,CONFERENCE_9_Z119_HEATC-FANNODE,Air,5
 Node,606,CONFERENCE_9_Z119_SUPPLYEQUIPMENTOUTLETNODE,Air,3
 Node,607,BREAK_ROOM_9_Z120_SUPPLYINLET,Air,3
 Node,608,BREAK_ROOM_9_Z120_COOLC-HEATCNODE,Air,6
 Node,609,BREAK_ROOM_9_Z120_HEATC-FANNODE,Air,5
 Node,610,BREAK_ROOM_9_Z120_SUPPLYEQUIPMENTOUTLETNODE,Air,3
 Node,611,MECHANICAL_9_Z121_SUPPLYINLET,Air,3
 Node,612,MECHANICAL_9_Z121_COOLC-HEATCNODE,Air,6
 Node,613,MECHANICAL_9_Z121_HEATC-FANNODE,Air,5
 Node,614,MECHANICAL_9_Z121_SUPPLYEQUIPMENTOUTLETNODE,Air,3
 Node,615,OFFICE_OPEN_9_0_0_Z122_SUPPLYINLET,Air,3
 Node,616,OFFICE_OPEN_9_0_0_Z122_COOLC-HEATCNODE,Air,6
 Node,617,OFFICE_OPEN_9_0_0_Z122_HEATC-FANNODE,Air,5
 Node,618,OFFICE_OPEN_9_0_0_Z122_SUPPLYEQUIPMENTOUTLETNODE,Air,3
 Node,619,OFFICE_PRIVATE_9_0_1_Z123_SUPPLYINLET,Air,3
 Node,620,OFFICE_PRIVATE_9_0_1_Z123_COOLC-HEATCNODE,Air,6
 Node,621,OFFICE_PRIVATE_9_0_1_Z123_HEATC-FANNODE,Air,5
 Node,622,OFFICE_PRIVATE_9_0_1_Z123_SUPPLYEQUIPMENTOUTLETNODE,Air,3
 Node,623,STORAGE_9_0_2_Z124_SUPPLYINLET,Air,3
 Node,624,STORAGE_9_0_2_Z124_COOLC-HEATCNODE,Air,6
 Node,625,STORAGE_9_0_2_Z124_HEATC-FANNODE,Air,5
 Node,626,STORAGE_9_0_2_Z124_SUPPLYEQUIPMENTOUTLETNODE,Air,3
 Node,627,OFFICE_OPEN_9_1_0_Z125_SUPPLYINLET,Air,3
 Node,628,OFFICE_OPEN_9_1_0_Z125_COOLC-HEATCNODE,Air,6
 Node,629,OFFICE_OPEN_9_1_0_Z125_HEATC-FANNODE,Air,5
 Node,630,OFFICE_OPEN_9_1_0_Z125_SUPPLYEQUIPMENTOUTLETNODE,Air,3
 Node,631,OFFICE_PRIVATE_9_1_1_Z126_SUPPLYINLET,Air,3
 Node,632,OFFICE_PRIVATE_9_1_1_Z126_COOLC-HEATCNODE,Air,6
 Node,633,OFFICE_PRIVATE_9_1_1_Z126_HEATC-FANNODE,Air,5
 Node,634,OFFICE_PRIVATE_9_1_1_Z126_SUPPLYEQUIPMENTOUTLETNODE,Air,3
 Node,635,STORAGE_9_1_2_Z127_SUPPLYINLET,Air,3
 Node,636,STORAGE_9_1_2_Z127_COOLC-HEATCNODE,Air,6
 Node,637,STORAGE_9_1_2_Z127_HEATC-FANNODE,Air,5
 Node,638,STORAGE_9_1_2_Z127_SUPPLYEQUIPMENTOUTLETNODE,Air,3
 Node,639,OFFICE_OPEN_9_2_0_Z128_SUPPLYINLET,Air,3
 Node,640,OFFICE_OPEN_9_2_0_Z128_COOLC-HEATCNODE,Air,6
 Node,641,OFFICE_OPEN_9_2_0_Z128_HEATC-FANNODE,Air,5
 Node,642,OFFICE_OPEN_9_2_0_Z128_SUPPLYEQUIPMENTOUTLETNODE,Air,3
 Node,643,OFFICE_PRIVATE_9_2_1_Z129_SUPPLYINLET,Air,3
 Node,644,OFFICE_PRIVATE_9_2_1_Z129_COOLC-HEATCNODE,Air,6
 Node,645,OFFICE_PRIVATE_9_2_1_Z129_HEATC-FANNODE,Air,5
 Node,646,OFFICE_PRIVATE_9_2_1_Z129_SUPPLYEQUIPMENTOUTLETNODE,Air,3
 Node,647,STORAGE_9_2_2_Z130_SUPPLYINLET,Air,3
 Node,648,STORAGE_9_2_2_Z130_COOLC-HEATCNODE,Air,6
 Node,649,STORAGE_9_2_2_Z130_HEATC-FANNODE,Air,5
 Node,650,STORAGE_9_2_2_Z130_SUPPLYEQUIPMENTOUTLETNODE,Air,3
 Node,651,LOBBY_0 AIR NODE,Air,0
 Node,652,LOBBY_0_Z1_RETURNAIR,Air,1
 Node,653,CONFERENCE_0 AIR NODE,Air,0
 Node,654,CONFERENCE_0_Z2_RETURNAIR,Air,1
 Node,655,BREAK_ROOM_0 AIR NODE,Air,0
 Node,656,BREAK_ROOM_0_Z3_RETURNAIR,Air,1
 Node,657,MECHANICAL_0 AIR NODE,Air,0
 Node,658,MECHANICAL_0_Z4_RETURNAIR,Air,1
 Node,659,OFFICE_OPEN_0_0_0 AIR NODE,Air,0
 Node,660,OFFICE_OPEN_0_0_0_Z5_RETURNAIR,Air,1
 Node,661,OFFICE_PRIVATE_0_0_1 AIR NODE,Air,0
 Node,662,OFFICE_PRIVATE_0_0_1_Z6_RETURNAIR,Air,1
 Node,663,STORAGE_0_0_2 AIR NODE,Air,0
 Node,664,STORAGE_0_0_2_Z7_RETURNAIR,Air,1
 Node,665,OFFICE_OPEN_0_1_0 AIR NODE,Air,0
 Node,666,OFFICE_OPEN_0_1_0_Z8_RETURNAIR,Air,1
 Node,667,OFFICE_PRIVATE_0_1_1 AIR NODE,Air,0
 Node,668,OFFICE_PRIVATE_0_1_1_Z9_RETURNAIR,Air,1
 Node,669,STORAGE_0_1_2 AIR NODE,Air,0
 Node,670,STORAGE_0_1_2_Z10_RETURNAIR,Air,1
 Node,671,OFFICE_OPEN_0_2_0 AIR NODE,Air,0
 Node,672,OFFICE_OPEN_0_2_0_Z11_RETURNAIR,Air,1
 Node,673,OFFICE_PRIVATE_0_2_1 AIR NODE,Air,0
 Node,674,OFFICE_PRIVATE_0_2_1_Z12_RETURNAIR,Air,1
 Node,675,STORAGE_0_2_2 AIR NODE,Air,0
 Node,676,STORAGE_0_2_2_Z13_RETURNAIR,Air,1
 Node,677,LOBBY_1 AIR NODE,Air,0
 Node,678,LOBBY_1_Z14_RETURNAIR,Air,1
 Node,679,CONFERENCE_1 AIR NODE,Air,0
 Node,680,CONFERENCE_1_Z15_RETURNAIR,Air,1
 Node,681,BREAK_ROOM_1 AIR NODE,Air,0
 Node,682,BREAK_ROOM_1_Z16_RETURNAIR,Air,1
 Node,683,MECHANICAL_1 AIR NODE,Air,0
 Node,684,MECHANICAL_1_Z17_RETURNAIR,Air,1
 Node,685,OFFICE_OPEN_1_0_0 AIR NODE,Air,0
 Node,686,OFFICE_OPEN_1_0_0_Z18_RETURNAIR,Air,1
 Node,687,OFFICE_PRIVATE_1_0_1 AIR NODE,Air,0
 Node,688,OFFICE_PRIVATE_1_0_1_Z19_RETURNAIR,Air,1
 Node,689,STORAGE_1_0_2 AIR NODE,Air,0
 Node,690,STORAGE_1_0_2_Z20_RETURNAIR,Air,1
 Node,691,OFFICE_OPEN_1_1_0 AIR NODE,Air,0
 Node,692,OFFICE_OPEN_1_1_0_Z21_RETURNAIR,Air,1
 Node,693,OFFICE_PRIVATE_1_1_1 AIR NODE,Air,0
 Node,694,OFFICE_PRIVATE_1_1_1_Z22_RETURNAIR,Air,1
 Node,695,STORAGE_1_1_2 AIR NODE,Air,0
 Node,696,STORAGE_1_1_2_Z23_RETURNAIR,Air,1
 Node,697,OFFICE_OPEN_1_2_0 AIR NODE,Air,0
 Node,698,OFFICE_OPEN_1_2_0_Z24_RETURNAIR,Air,1
 Node,699,OFFICE_PRIVATE_1_2_1 AIR NODE,Air,0
 Node,700,OFFICE_PRIVATE_1_2_1_Z25_RETURNAIR,Air,1
 Node,701,STORAGE_1_2_2 AIR NODE,Air,0
 Node,702,STORAGE_1_2_2_Z26_RETURNAIR,Air,1
 Node,703,LOBBY_2 AIR NODE,Air,0
 Node,704,LOBBY_2_Z27_RETURNAIR,Air,1
 Node,705,CONFERENCE_2 AIR NODE,Air,0
 Node,706,CONFERENCE_2_Z28_RETURNAIR,Air,1
 Node,707,BREAK_ROOM_2 AIR NODE,Air,0
 Node,708,BREAK_ROOM_2_Z29_RETURNAIR,Air,1
 Node,709,MECHANICAL_2 AIR NODE,Air,0
 Node,710,MECHANICAL_2_Z30_RETURNAIR,Air,1
 Node,711,OFFICE_OPEN_2_0_0 AIR NODE,Air,0
 Node,712,OFFICE_OPEN_2_0_0_Z31_RETURNAIR,Air,1
 Node,713,OFFICE_PRIVATE_2_0_1 AIR NODE,Air,0
 Node,714,OFFICE_PRIVATE_2_0_1_Z32_RETURNAIR,Air,1
 Node,715,STORAGE_2_0_2 AIR NODE,Air,0
 Node,716,STORAGE_2_0_2_Z33_RETURNAIR,Air,1
 Node,717,OFFICE_OPEN_2_1_0 AIR NODE,Air,0
 Node,718,OFFICE_OPEN_2_1_0_Z34_RETURNAIR,Air,1
 Node,719,OFFICE_PRIVATE_2_1_1 AIR NODE,Air,0
 Node,720,OFFICE_PRIVATE_2_1_1_Z35_RETURNAIR,Air,1
 Node,721,STORAGE_2_1_2 AIR NODE,Air,0
 Node,722,STORAGE_2_1_2_Z36_RETURNAIR,Air,1
 Node,723,OFFICE_OPEN_2_2_0 AIR NODE,Air,0
 Node,724,OFFICE_OPEN_2_2_0_Z37_RETURNAIR,Air,1
 Node,725,OFFICE_PRIVATE_2_2_1 AIR NODE,Air,0
 Node,726,OFFICE_PRIVATE_2_2_1_Z38_RETURNAIR,Air,1
 Node,727,STORAGE_2_2_2 AIR NODE,Air,0
 Node,728,STORAGE_2_2_2_Z39_RETURNAIR,Air,1
 Node,729,LOBBY_3 AIR NODE,Air,0
 Node,730,LOBBY_3_Z40_RETURNAIR,Air,1
 Node,731,CONFERENCE_3 AIR NODE,Air,0
 Node,732,CONFERENCE_3_Z41_RETURNAIR,Air,1
 Node,733,BREAK_ROOM_3 AIR NODE,Air,0
 Node,734,BREAK_ROOM_3_Z42_RETURNAIR,Air,1
 Node,735,MECHANICAL_3 AIR NODE,Air,0
 Node,736,MECHANICAL_3_Z43_RETURNAIR,Air,1
 Node,737,OFFICE_OPEN_3_0_0 AIR NODE,Air,0
 Node,738,OFFICE_OPEN_3_0_0_Z44_RETURNAIR,Air,1
 Node,739,OFFICE_PRIVATE_3_0_1 AIR NODE,Air,0
 Node,740,OFFICE_PRIVATE_3_0_1_Z45_RETURNAIR,Air,1
 Node,741,STORAGE_3_0_2 AIR NODE,Air,0
 Node,742,STORAGE_3_0_2_Z46_RETURNAIR,Air,1
 Node,743,OFFICE_OPEN_3_1_0 AIR NODE,Air,0
 Node,744,OFFICE_OPEN_3_1_0_Z47_RETURNAIR,Air,1
 Node,745,OFFICE_PRIVATE_3_1_1 AIR NODE,Air,0
 Node,746,OFFICE_PRIVATE_3_1_1_Z48_RETURNAIR,Air,1
 Node,747,STORAGE_3_1_2 AIR NODE,Air,0
 Node,748,STORAGE_3_1_2_Z49_RETURNAIR,Air,1
 Node,749,OFFICE_OPEN_3_2_0 AIR NODE,Air,0
 Node,750,OFFICE_OPEN_3_2_0_Z50_RETURNAIR,Air,1
 Node,751,OFFICE_PRIVATE_3_2_1 AIR NODE,Air,0
 Node,752,OFFICE_PRIVATE_3_2_1_Z51_RETURNAIR,Air,1
 Node,753,STORAGE_3_2_2 AIR NODE,Air,0
 Node,754,STORAGE_3_2_2_Z52_RETURNAIR,Air,1
 Node,755,LOBBY_4 AIR NODE,Air,0
 Node,756,LOBBY_4_Z53_RETURNAIR,Air,1
 Node,757,CONFERENCE_4 AIR NODE,Air,0
 Node,758,CONFERENCE_4_Z54_RETURNAIR,Air,1
 Node,759,BREAK_ROOM_4 AIR NODE,Air,0
 Node,760,BREAK_ROOM_4_Z55_RETURNAIR,Air,1
 Node,761,MECHANICAL_4 AIR NODE,Air,0
 Node,762,MECHANICAL_4_Z56_RETURNAIR,Air,1
 Node,763,OFFICE_OPEN_4_0_0 AIR NODE,Air,0
 Node,764,OFFICE_OPEN_4_0_0_Z57_RETURNAIR,Air,1
 Node,765,OFFICE_PRIVATE_4_0_1 AIR NODE,Air,0
 Node,766,OFFICE_PRIVATE_4_0_1_Z58_RETURNAIR,Air,1
 Node,767,STORAGE_4_0_2 AIR NODE,Air,0
 Node,768,STORAGE_4_0_2_Z59_RETURNAIR,Air,1
 Node,769,OFFICE_OPEN_4_1_0 AIR NODE,Air,0
 Node,770,OFFICE_OPEN_4_1_0_Z60_RETURNAIR,Air,1
 Node,771,OFFICE_PRIVATE_4_1_1 AIR NODE,Air,0
 Node,772,OFFICE_PRIVATE_4_1_1_Z61_RETURNAIR,Air,1
 Node,773,STORAGE_4_1_2 AIR NODE,Air,0
 Node,774,STORAGE_4_1_2_Z62_RETURNAIR,Air,1
 Node,775,OFFICE_OPEN_4_2_0 AIR NODE,Air,0
 Node,776,OFFICE_OPEN_4_2_0_Z63_RETURNAIR,Air,1
 Node,777,OFFICE_PRIVATE_4_2_1 AIR NODE,Air,0
 Node,778,OFFICE_PRIVATE_4_2_1_Z64_RETURNAIR,Air,1
 Node,779,STORAGE_4_2_2 AIR NODE,Air,0
 Node,780,STORAGE_4_2_2_Z65_RETURNAIR,Air,1
 Node,781,LOBBY_5 AIR NODE,Air,0
 Node,782,LOBBY_5_Z66_RETURNAIR,Air,1
 Node,783,CONFERENCE_5 AIR NODE,Air,0
 Node,784,CONFERENCE_5_Z67_RETURNAIR,Air,1
 Node,785,BREAK_ROOM_5 AIR NODE,Air,0
 Node,786,BREAK_ROOM_5_Z68_RETURNAIR,Air,1
 Node,787,MECHANICAL_5 AIR NODE,Air,0
 Node,788,MECHANICAL_5_Z69_RETURNAIR,Air,1
 Node,789,OFFICE_OPEN_5_0_0 AIR NODE,Air,0
 Node,790,OFFICE_OPEN_5_0_0_Z70_RETURNAIR,Air,1
 Node,791,OFFICE_PRIVATE_5_0_1 AIR NODE,Air,0
 Node,792,OFFICE_PRIVATE_5_0_1_Z71_RETURNAIR,Air,1
 Node,793,STORAGE_5_0_2 AIR NODE,Air,0
 Node,794,STORAGE_5_0_2_Z72_RETURNAIR,Air,1
 Node,795,OFFICE_OPEN_5_1_0 AIR NODE,Air,0
 Node,796,OFFICE_OPEN_5_1_0_Z73_RETURNAIR,Air,1
 Node,797,OFFICE_PRIVATE_5_1_1 AIR NODE,Air,0
 Node,798,OFFICE_PRIVATE_5_1_1_Z74_RETURNAIR,Air,1
 Node,799,STORAGE_5_1_2 AIR NODE,Air,0
 Node,800,STORAGE_5_1_2_Z75_RETURNAIR,Air,1
 Node,801,OFFICE_OPEN_5_2_0 AIR NODE,Air,0
 Node,802,OFFICE_OPEN_5_2_0_Z76_RETURNAIR,Air,1
 Node,803,OFFICE_PRIVATE_5_2_1 AIR NODE,Air,0
 Node,804,OFFICE_PRIVATE_5_2_1_Z77_RETURNAIR,Air,1
 Node,805,STORAGE_5_2_2 AIR NODE,Air,0
 Node,806,STORAGE_5_2_2_Z78_RETURNAIR,Air,1
 Node,807,LOBBY_6 AIR NODE,Air,0
 Node,808,LOBBY_6_Z79_RETURNAIR,Air,1
 Node,809,CONFERENCE_6 AIR NODE,Air,0
 Node,810,CONFERENCE_6_Z80_RETURNAIR,Air,1
 Node,811,BREAK_ROOM_6 AIR NODE,Air,0
 Node,812,BREAK_ROOM_6_Z81_RETURNAIR,Air,1
 Node,813,MECHANICAL_6 AIR NODE,Air,0
 Node,814,MECHANICAL_6_Z82_RETURNAIR,Air,1
 Node,815,OFFICE_OPEN_6_0_0 AIR NODE,Air,0
 Node,816,OFFICE_OPEN_6_0_0_Z83_RETURNAIR,Air,1
 Node,817,OFFICE_PRIVATE_6_0_1 AIR NODE,Air,0
 Node,818,OFFICE_PRIVATE_6_0_1_Z84_RETURNAIR,Air,1
 Node,819,STORAGE_6_0_2 AIR NODE,Air,0
 Node,820,STORAGE_6_0_2_Z85_RETURNAIR,Air,1
 Node,821,OFFICE_OPEN_6_1_0 AIR NODE,Air,0
 Node,822,OFFICE_OPEN_6_1_0_Z86_RETURNAIR,Air,1
 Node,823,OFFICE_PRIVATE_6_1_1 AIR NODE,Air,0
 Node,824,OFFICE_PRIVATE_6_1_1_Z87_RETURNAIR,Air,1
 Node,825,STORAGE_6_1_2 AIR NODE,Air,0
 Node,826,STORAGE_6_1_2_Z88_RETURNAIR,Air,1
 Node,827,OFFICE_OPEN_6_2_0 AIR NODE,Air,0
 Node,828,OFFICE_OPEN_6_2_0_Z89_RETURNAIR,Air,1
 Node,829,OFFICE_PRIVATE_6_2_1 AIR NODE,Air,0
 Node,830,OFFICE_PRIVATE_6_2_1_Z90_RETURNAIR,Air,1
 Node,831,STORAGE_6_2_2 AIR NODE,Air,0
 Node,832,STORAGE_6_2_2_Z91_RETURNAIR,Air,1
 Node,833,LOBBY_7 AIR NODE,Air,0
 Node,834,LOBBY_7_Z92_RETURNAIR,Air,1
 Node,835,CONFERENCE_7 AIR NODE,Air,0
 Node,836,CONFERENCE_7_Z93_RETURNAIR,Air,1
 Node,837,BREAK_ROOM_7 AIR NODE,Air,0
 Node,838,BREAK_ROOM_7_Z94_RETURNAIR,Air,1
 Node,839,MECHANICAL_7 AIR NODE,Air,0
 Node,840,MECHANICAL_7_Z95_RETURNAIR,Air,1
 Node,841,OFFICE_OPEN_7_0_0 AIR NODE,Air,0
 Node,842,OFFICE_OPEN_7_0_0_Z96_RETURNAIR,Air,1
 Node,843,OFFICE_PRIVATE_7_0_1 AIR NODE,Air,0
 Node,844,OFFICE_PRIVATE_7_0_1_Z97_RETURNAIR,Air,1
 Node,845,STORAGE_7_0_2 AIR NODE,Air,0
 Node,846,STORAGE_7_0_2_Z98_RETURNAIR,Air,1
 Node,847,OFFICE_OPEN_7_1_0 AIR NODE,Air,0
 Node,848,OFFICE_OPEN_7_1_0_Z99_RETURNAIR,Air,1
 Node,849,OFFICE_PRIVATE_7_1_1 AIR NODE,Air,0
 Node,850,OFFICE_PRIVATE_7_1_1_Z100_RETURNAIR,Air,1
 Node,851,STORAGE_7_1_2 AIR NODE,Air,0
 Node,852,STORAGE_7_1_2_Z101_RETURNAIR,Air,1
 Node,853,OFFICE_OPEN_7_2_0 AIR NODE,Air,0
 Node,854,OFFICE_OPEN_7_2_0_Z102_RETURNAIR,Air,1
 Node,855,OFFICE_PRIVATE_7_2_1 AIR NODE,Air,0
 Node,856,OFFICE_PRIVATE_7_2_1_Z103_RETURNAIR,Air,1
 Node,857,STORAGE_7_2_2 AIR NODE,Air,0
 Node,858,STORAGE_7_2_2_Z104_RETURNAIR,Air,1
 Node,859,LOBBY_8 AIR NODE,Air,0
 Node,860,LOBBY_8_Z105_RETURNAIR,Air,1
 Node,861,CONFERENCE_8 AIR NODE,Air,0
 Node,862,CONFERENCE_8_Z106_RETURNAIR,Air,1
 Node,863,BREAK_ROOM_8 AIR NODE,Air,0
 Node,864,BREAK_ROOM_8_Z107_RETURNAIR,Air,1
 Node,865,MECHANICAL_8 AIR NODE,Air,0
 Node,866,MECHANICAL_8_Z108_RETURNAIR,Air,1
 Node,867,OFFICE_OPEN_8_0_0 AIR NODE,Air,0
 Node,868,OFFICE_OPEN_8_0_0_Z109_RETURNAIR,Air,1
 Node,869,OFFICE_PRIVATE_8_0_1 AIR NODE,Air,0
 Node,870,OFFICE_PRIVATE_8_0_1_Z110_RETURNAIR,Air,1
 Node,871,STORAGE_8_0_2 AIR NODE,Air,0
 Node,872,STORAGE_8_0_2_Z111_RETURNAIR,Air,1
 Node,873,OFFICE_OPEN_8_1_0 AIR NODE,Air,0
 Node,874,OFFICE_OPEN_8_1_0_Z112_RETURNAIR,Air,1
 Node,875,OFFICE_PRIVATE_8_1_1 AIR NODE,Air,0
 Node,876,OFFICE_PRIVATE_8_1_1_Z113_RETURNAIR,Air,1
 Node,877,STORAGE_8_1_2 AIR NODE,Air,0
 Node,878,STORAGE_8_1_2_Z114_RETURNAIR,Air,1
 Node,879,OFFICE_OPEN_8_2_0 AIR NODE,Air,0
 Node,880,OFFICE_OPEN_8_2_0_Z115_RETURNAIR,Air,1
 Node,881,OFFICE_PRIVATE_8_2_1 AIR NODE,Air,0
 Node,882,OFFICE_PRIVATE_8_2_1_Z116_RETURNAIR,Air,1
 Node,883,STORAGE_8_2_2 AIR NODE,Air,0
 Node,884,STORAGE_8_2_2_Z117_RETURNAIR,Air,1
 Node,885,LOBBY_9 AIR NODE,Air,0
 Node,886,LOBBY_9_Z118_RETURNAIR,Air,1
 Node,887,CONFERENCE_9 AIR NODE,Air,0
 Node,888,CONFERENCE_9_Z119_RETURNAIR,Air,1
 Node,889,BREAK_ROOM_9 AIR NODE,Air,0
 Node,890,BREAK_ROOM_9_Z120_RETURNAIR,Air,1
 Node,891,MECHANICAL_9 AIR NODE,Air,0
 Node,892,MECHANICAL_9_Z121_RETURNAIR,Air,1
 Node,893,OFFICE_OPEN_9_0_0 AIR NODE,Air,0
 Node,894,OFFICE_OPEN_9_0_0_Z122_RETURNAIR,Air,1
 Node,895,OFFICE_PRIVATE_9_0_1 AIR NODE,Air,0
 Node,896,OFFICE_PRIVATE_9_0_1_Z123_RETURNAIR,Air,1
 Node,897,STORAGE_9_0_2 AIR NODE,Air,0
 Node,898,STORAGE_9_0_2_Z124_RETURNAIR,Air,1
 Node,899,OFFICE_OPEN_9_1_0 AIR NODE,Air,0
 Node,900,OFFICE_OPEN_9_1_0_Z125_RETURNAIR,Air,1
 Node,901,OFFICE_PRIVATE_9_1_1 AIR NODE,Air,0
 Node,902,OFFICE_PRIVATE_9_1_1_Z126_RETURNAIR,Air,1
 Node,903,STORAGE_9_1_2 AIR NODE,Air,0
 Node,904,STORAGE_9_1_2_Z127_RETURNAIR,Air,1
 Node,905,OFFICE_OPEN_9_2_0 AIR NODE,Air,0
 Node,906,OFFICE_OPEN_9_2_0_Z128_RETURNAIR,Air,1
 Node,907,OFFICE_PRIVATE_9_2_1 AIR NODE,Air,0
 Node,908,OFFICE_PRIVATE_9_2_1_Z129_RETURNAIR,Air,1
 Node,909,STORAGE_9_2_2 AIR NODE,Air,0
 Node,910,STORAGE_9_2_2_Z130_RETURNAIR,Air,1
 Node,911,LOBBY_0_Z1_ZONEEQUIPMENTINLET,Air,2
 Node,912,CONFERENCE_0_Z2_ZONEEQUIPMENTINLET,Air,2
 Node,913,BREAK_ROOM_0_Z3_ZONEEQUIPMENTINLET,Air,2
 Node,914,MECHANICAL_0_Z4_ZONEEQUIPMENTINLET,Air,2
 Node,915,OFFICE_OPEN_0_0_0_Z5_ZONEEQUIPMENTINLET,Air,2
 Node,916,OFFICE_PRIVATE_0_0_1_Z6_ZONEEQUIPMENTINLET,Air,2
 Node,917,STORAGE_0_0_2_Z7_ZONEEQUIPMENTINLET,Air,2
 Node,918,OFFICE_OPEN_0_1_0_Z8_ZONEEQUIPMENTINLET,Air,2
 Node,919,OFFICE_PRIVATE_0_1_1_Z9_ZONEEQUIPMENTINLET,Air,2
 Node,920,STORAGE_0_1_2_Z10_ZONEEQUIPMENTINLET,Air,2
 Node,921,OFFICE_OPEN_0_2_0_Z11_ZONEEQUIPMENTINLET,Air,2
 Node,922,OFFICE_PRIVATE_0_2_1_Z12_ZONEEQUIPMENTINLET,Air,2
 Node,923,STORAGE_0_2_2_Z13_ZONEEQUIPMENTINLET,Air,2
 Node,924,LOBBY_1_Z14_ZONEEQUIPMENTINLET,Air,2
 Node,925,CONFERENCE_1_Z15_ZONEEQUIPMENTINLET,Air,2
 Node,926,BREAK_ROOM_1_Z16_ZONEEQUIPMENTINLET,Air,2
 Node,927,MECHANICAL_1_Z17_ZONEEQUIPMENTINLET,Air,2
 Node,928,OFFICE_OPEN_1_0_0_Z18_ZONEEQUIPMENTINLET,Air,2
 Node,929,OFFICE_PRIVATE_1_0_1_Z19_ZONEEQUIPMENTINLET,Air,2
 Node,930,STORAGE_1_0_2_Z20_ZONEEQUIPMENTINLET,Air,2
 Node,931,OFFICE_OPEN_1_1_0_Z21_ZONEEQUIPMENTINLET,Air,2
 Node,932,OFFICE_PRIVATE_1_1_1_Z22_ZONEEQUIPMENTINLET,Air,2
 Node,933,STORAGE_1_1_2_Z23_ZONEEQUIPMENTINLET,Air,2
 Node,934,OFFICE_OPEN_1_2_0_Z24_ZONEEQUIPMENTINLET,Air,2
 Node,935,OFFICE_PRIVATE_1_2_1_Z25_ZONEEQUIPMENTINLET,Air,2
 Node,936,STORAGE_1_2_2_Z26_ZONEEQUIPMENTINLET,Air,2
 Node,937,LOBBY_2_Z27_ZONEEQUIPMENTINLET,Air,2
 Node,938,CONFERENCE_2_Z28_ZONEEQUIPMENTINLET,Air,2
 Node,939,BREAK_ROOM_2_Z29_ZONEEQUIPMENTINLET,Air,2
 Node,940,MECHANICAL_2_Z30_ZONEEQUIPMENTINLET,Air,2
 Node,941,OFFICE_OPEN_2_0_0_Z31_ZONEEQUIPMENTINLET,Air,2
 Node,942,OFFICE_PRIVATE_2_0_1_Z32_ZONEEQUIPMENTINLET,Air,2
 Node,943,STORAGE_2_0_2_Z33_ZONEEQUIPMENTINLET,Air,2
 Node,944,OFFICE_OPEN_2_1_0_Z34_ZONEEQUIPMENTINLET,Air,2
 Node,945,OFFICE_PRIVATE_2_1_1_Z35_ZONEEQUIPMENTINLET,Air,2
 Node,946,STORAGE_2_1_2_Z36_ZONEEQUIPMENTINLET,Air,2
 Node,947,OFFICE_OPEN_2_2_0_Z37_ZONEEQUIPMENTINLET,Air,2
 Node,948,OFFICE_PRIVATE_2_2_1_Z38_ZONEEQUIPMENTINLET,Air,2
 Node,949,STORAGE_2_2_2_Z39_ZONEEQUIPMENTINLET,Air,2
 Node,950,LOBBY_3_Z40_ZONEEQUIPMENTINLET,Air,2
 Node,951,CONFERENCE_3_Z41_ZONEEQUIPMENTINLET,Air,2
 Node,952,BREAK_ROOM_3_Z42_ZONEEQUIPMENTINLET,Air,2
 Node,953,MECHANICAL_3_Z43_ZONEEQUIPMENTINLET,Air,2
 Node,954,OFFICE_OPEN_3_0_0_Z44_ZONEEQUIPMENTINLET,Air,2
 Node,955,OFFICE_PRIVATE_3_0_1_Z45_ZONEEQUIPMENTINLET,Air,2
 Node,956,STORAGE_3_0_2_Z46_ZONEEQUIPMENTINLET,Air,2
 Node,957,OFFICE_OPEN_3_1_0_Z47_ZONEEQUIPMENTINLET,Air,2
 Node,958,OFFICE_PRIVATE_3_1_1_Z48_ZONEEQUIPMENTINLET,Air,2
 Node,959,STORAGE_3_1_2_Z49_ZONEEQUIPMENTINLET,Air,2
 Node,960,OFFICE_OPEN_3_2_0_Z50_ZONEEQUIPMENTINLET,Air,2
 Node,961,OFFICE_PRIVATE_3_2_1_Z51_ZONEEQUIPMENTINLET,Air,2
 Node,962,STORAGE_3_2_2_Z52_ZONEEQUIPMENTINLET,Air,2
 Node,963,LOBBY_4_Z53_ZONEEQUIPMENTINLET,Air,2
 Node,964,CONFERENCE_4_Z54_ZONEEQUIPMENTINLET,Air,2
 Node,965,BREAK_ROOM_4_Z55_ZONEEQUIPMENTINLET,Air,2
 Node,966,MECHANICAL_4_Z56_ZONEEQUIPMENTINLET,Air,2
 Node,967,OFFICE_OPEN_4_0_0_Z57_ZONEEQUIPMENTINLET,Air,2
 Node,968,OFFICE_PRIVATE_4_0_1_Z58_ZONEEQUIPMENTINLET,Air,2
 Node,969,STORAGE_4_0_2_Z59_ZONEEQUIPMENTINLET,Air,2
 Node,970,OFFICE_OPEN_4_1_0_Z60_ZONEEQUIPMENTINLET,Air,2
 Node,971,OFFICE_PRIVATE_4_1_1_Z61_ZONEEQUIPMENTINLET,Air,2
 Node,972,STORAGE_4_1_2_Z62_ZONEEQUIPMENTINLET,Air,2
 Node,973,OFFICE_OPEN_4_2_0_Z63_ZONEEQUIPMENTINLET,Air,2
 Node,974,OFFICE_PRIVATE_4_2_1_Z64_ZONEEQUIPMENTINLET,Air,2
 Node,975,STORAGE_4_2_2_Z65_ZONEEQUIPMENTINLET,Air,2
 Node,976,LOBBY_5_Z66_ZONEEQUIPMENTINLET,Air,2
 Node,977,CONFERENCE_5_Z67_ZONEEQUIPMENTINLET,Air,2
 Node,978,BREAK_ROOM_5_Z68_ZONEEQUIPMENTINLET,Air,2
 Node,979,MECHANICAL_5_Z69_ZONEEQUIPMENTINLET,Air,2
 Node,980,OFFICE_OPEN_5_0_0_Z70_ZONEEQUIPMENTINLET,Air,2
 Node,981,OFFICE_PRIVATE_5_0_1_Z71_ZONEEQUIPMENTINLET,Air,2
 Node,982,STORAGE_5_0_2_Z72_ZONEEQUIPMENTINLET,Air,2
 Node,983,OFFICE_OPEN_5_1_0_Z73_ZONEEQUIPMENTINLET,Air,2
 Node,984,OFFICE_PRIVATE_5_1_1_Z74_ZONEEQUIPMENTINLET,Air,2
 Node,985,STORAGE_5_1_2_Z75_ZONEEQUIPMENTINLET,Air,2
 Node,986,OFFICE_OPEN_5_2_0_Z76_ZONEEQUIPMENTINLET,Air,2
 Node,987,OFFICE_PRIVATE_5_2_1_Z77_ZONEEQUIPMENTINLET,Air,2
 Node,988,STORAGE_5_2_2_Z78_ZONEEQUIPMENTINLET,Air,2
 Node,989,LOBBY_6_Z79_ZONEEQUIPMENTINLET,Air,2
 Node,990,CONFERENCE_6_Z80_ZONEEQUIPMENTINLET,Air,2
 Node,991,BREAK_ROOM_6_Z81_ZONEEQUIPMENTINLET,Air,2
 Node,992,MECHANICAL_6_Z82_ZONEEQUIPMENTINLET,Air,2
 Node,993,OFFICE_OPEN_6_0_0_Z83_ZONEEQUIPMENTINLET,Air,2
 Node,994,OFFICE_PRIVATE_6_0_1_Z84_ZONEEQUIPMENTINLET,Air,2
 Node,995,STORAGE_6_0_2_Z85_ZONEEQUIPMENTINLET,Air,2
 Node,996,OFFICE_OPEN_6_1_0_Z86_ZONEEQUIPMENTINLET,Air,2
 Node,997,OFFICE_PRIVATE_6_1_1_Z87_ZONEEQUIPMENTINLET,Air,2
 Node,998,STORAGE_6_1_2_Z88_ZONEEQUIPMENTINLET,Air,2
 Node,999,OFFICE_OPEN_6_2_0_Z89_ZONEEQUIPMENTINLET,Air,2
 Node,1000,OFFICE_PRIVATE_6_2_1_Z90_ZONEEQUIPMENTINLET,Air,2
 Node,1001,STORAGE_6_2_2_Z91_ZONEEQUIPMENTINLET,Air,2
 Node,1002,LOBBY_7_Z92_ZONEEQUIPMENTINLET,Air,2
 Node,1003,CONFERENCE_7_Z93_ZONEEQUIPMENTINLET,Air,2
 Node,1004,BREAK_ROOM_7_Z94_ZONEEQUIPMENTINLET,Air,2
 Node,1005,MECHANICAL_7_Z95_ZONEEQUIPMENTINLET,Air,2
 Node,1006,OFFICE_OPEN_7_0_0_Z96_ZONEEQUIPMENTINLET,Air,2
 Node,1007,OFFICE_PRIVATE_7_0_1_Z97_ZONEEQUIPMENTINLET,Air,2
 Node,1008,STORAGE_7_0_2_Z98_ZONEEQUIPMENTINLET,Air,2
 Node,1009,OFFICE_OPEN_7_1_0_Z99_ZONEEQUIPMENTINLET,Air,2
 Node,1010,OFFICE_PRIVATE_7_1_1_Z100_ZONEEQUIPMENTINLET,Air,2
 Node,1011,STORAGE_7_1_2_Z101_ZONEEQUIPMENTINLET,Air,2
 Node,1012,OFFICE_OPEN_7_2_0_Z102_ZONEEQUIPMENTINLET,Air,2
 Node,1013,OFFICE_PRIVATE_7_2_1_Z103_ZONEEQUIPMENTINLET,Air,2
 Node,1014,STORAGE_7_2_2_Z104_ZONEEQUIPMENTINLET,Air,2
 Node,1015,LOBBY_8_Z105_ZONEEQUIPMENTINLET,Air,2
 Node,1016,CONFERENCE_8_Z106_ZONEEQUIPMENTINLET,Air,2
 Node,1017,BREAK_ROOM_8_Z107_ZONEEQUIPMENTINLET,Air,2
 Node,1018,MECHANICAL_8_Z108_ZONEEQUIPMENTINLET,Air,2
 Node,1019,OFFICE_OPEN_8_0_0_Z109_ZONEEQUIPMENTINLET,Air,2
 Node,1020,OFFICE_PRIVATE_8_0_1_Z110_ZONEEQUIPMENTINLET,Air,2
 Node,1021,STORAGE_8_0_2_Z111_ZONEEQUIPMENTINLET,Air,2
 Node,1022,OFFICE_OPEN_8_1_0_Z112_ZONEEQUIPMENTINLET,Air,2
 Node,1023,OFFICE_PRIVATE_8_1_1_Z113_ZONEEQUIPMENTINLET,Air,2
 Node,1024,STORAGE_8_1_2_Z114_ZONEEQUIPMENTINLET,Air,2
 Node,1025,OFFICE_OPEN_8_2_0_Z115_ZONEEQUIPMENTINLET,Air,2
 Node,1026,OFFICE_PRIVATE_8_2_1_Z116_ZONEEQUIPMENTINLET,Air,2
 Node,1027,STORAGE_8_2_2_Z117_ZONEEQUIPMENTINLET,Air,2
 Node,1028,LOBBY_9_Z118_ZONEEQUIPMENTINLET,Air,2
 Node,1029,CONFERENCE_9_Z119_ZONEEQUIPMENTINLET,Air,2
 Node,1030,BREAK_ROOM_9_Z120_ZONEEQUIPMENTINLET,Air,2
 Node,1031,MECHANICAL_9_Z121_ZONEEQUIPMENTINLET,Air,2
 Node,1032,OFFICE_OPEN_9_0_0_Z122_ZONEEQUIPMENTINLET,Air,2
 Node,1033,OFFICE_PRIVATE_9_0_1_Z123_ZONEEQUIPMENTINLET,Air,2
 Node,1034,STORAGE_9_0_2_Z124_ZONEEQUIPMENTINLET,Air,2
 Node,1035,OFFICE_OPEN_9_1_0_Z125_ZONEEQUIPMENTINLET,Air,2
 Node,1036,OFFICE_PRIVATE_9_1_1_Z126_ZONEEQUIPMENTINLET,Air,2
 Node,1037,STORAGE_9_1_2_Z127_ZONEEQUIPMENTINLET,Air,2
 Node,1038,OFFICE_OPEN_9_2_0_Z128_ZONEEQUIPMENTINLET,Air,2
 Node,1039,OFFICE_PRIVATE_9_2_1_Z129_ZONEEQUIPMENTINLET,Air,2
 Node,1040,STORAGE_9_2_2_Z130_ZONEEQUIPMENTINLET,Air,2
 Node,1041,LOBBY_0_Z1_ZONEEQUIPMENTOUTLETNODE,Air,2
 Node,1042,CONFERENCE_0_Z2_ZONEEQUIPMENTOUTLETNODE,Air,2
 Node,1043,BREAK_ROOM_0_Z3_ZONEEQUIPMENTOUTLETNODE,Air,2
 Node,1044,MECHANICAL_0_Z4_ZONEEQUIPMENTOUTLETNODE,Air,2
 Node,1045,OFFICE_OPEN_0_0_0_Z5_ZONEEQUIPMENTOUTLETNODE,Air,2
 Node,1046,OFFICE_PRIVATE_0_0_1_Z6_ZONEEQUIPMENTOUTLETNODE,Air,2
 Node,1047,STORAGE_0_0_2_Z7_ZONEEQUIPMENTOUTLETNODE,Air,2
 Node,1048,OFFICE_OPEN_0_1_0_Z8_ZONEEQUIPMENTOUTLETNODE,Air,2
 Node,1049,OFFICE_PRIVATE_0_1_1_Z9_ZONEEQUIPMENTOUTLETNODE,Air,2
 Node,1050,STORAGE_0_1_2_Z10_ZONEEQUIPMENTOUTLETNODE,Air,2
 Node,1051,OFFICE_OPEN_0_2_0_Z11_ZONEEQUIPMENTOUTLETNODE,Air,2
 Node,1052,OFFICE_PRIVATE_0_2_1_Z12_ZONEEQUIPMENTOUTLETNODE,Air,2
 Node,1053,STORAGE_0_2_2_Z13_ZONEEQUIPMENTOUTLETNODE,Air,2
 Node,1054,LOBBY_1_Z14_ZONEEQUIPMENTOUTLETNODE,Air,2
 Node,1055,CONFERENCE_1_Z15_ZONEEQUIPMENTOUTLETNODE,Air,2
 Node,1056,BREAK_ROOM_1_Z16_ZONEEQUIPMENTOUTLETNODE,Air,2
 Node,1057,MECHANICAL_1_Z17_ZONEEQUIPMENTOUTLETNODE,Air,2
 Node,1058,OFFICE_OPEN_1_0_0_Z18_ZONEEQUIPMENTOUTLETNODE,Air,2
 Node,1059,OFFICE_PRIVATE_1_0_1_Z19_ZONEEQUIPMENTOUTLETNODE,Air,2
 Node,1060,STORAGE_1_0_2_Z20_ZONEEQUIPMENTOUTLETNODE,Air,2
 Node,1061,OFFICE_OPEN_1_1_0_Z21_ZONEEQUIPMENTOUTLETNODE,Air,2
 Node,1062,OFFICE_PRIVATE_1_1_1_Z22_ZONEEQUIPMENTOUTLETNODE,Air,2
 Node,1063,STORAGE_1_1_2_Z23_ZONEEQUIPMENTOUTLETNODE,Air,2
 Node,1064,OFFICE_OPEN_1_2_0_Z24_ZONEEQUIPMENTOUTLETNODE,Air,2
 Node,1065,OFFICE_PRIVATE_1_2_1_Z25_ZONEEQUIPMENTOUTLETNODE,Air,2
 Node,1066,STORAGE_1_2_2_Z26_ZONEEQUIPMENTOUTLETNODE,Air,2
 Node,1067,LOBBY_2_Z27_ZONEEQUIPMENTOUTLETNODE,Air,2
 Node,1068,CONFERENCE_2_Z28_ZONEEQUIPMENTOUTLETNODE,Air,2
 Node,1069,BREAK_ROOM_2_Z29_ZONEEQUIPMENTOUTLETNODE,Air,2
 Node,1070,MECHANICAL_2_Z30_ZONEEQUIPMENTOUTLETNODE,Air,2
 Node,1071,OFFICE_OPEN_2_0_0_Z31_ZONEEQUIPMENTOUTLETNODE,Air,2
 Node,1072,OFFICE_PRIVATE_2_0_1_Z32_ZONEEQUIPMENTOUTLETNODE,Air,2
 Node,1073,STORAGE_2_0_2_Z33_ZONEEQUIPMENTOUTLETNODE,Air,2
 Node,1074,OFFICE_OPEN_2_1_0_Z34_ZONEEQUIPMENTOUTLETNODE,Air,2
 Node,1075,OFFICE_PRIVATE_2_1_1_Z35_ZONEEQUIPMENTOUTLETNODE,Air,2
 Node,1076,STORAGE_2_1_2_Z36_ZONEEQUIPMENTOUTLETNODE,Air,2
 Node,1077,OFFICE_OPEN_2_2_0_Z37_ZONEEQUIPMENTOUTLETNODE,Air,2
 Node,1078,OFFICE_PRIVATE_2_2_1_Z38_ZONEEQUIPMENTOUTLETNODE,Air,2
 Node,1079,STORAGE_2_2_2_Z39_ZONEEQUIPMENTOUTLETNODE,Air,2
 Node,1080,LOBBY_3_Z40_ZONEEQUIPMENTOUTLETNODE,Air,2
 Node,1081,CONFERENCE_3_Z41_ZONEEQUIPMENTOUTLETNODE,Air,2
 Node,1082,BREAK_ROOM_3_Z42_ZONEEQUIPMENTOUTLETNODE,Air,2
 Node,1083,MECHANICAL_3_Z43_ZONEEQUIPMENTOUTLETNODE,Air,2
 Node,1084,OFFICE_OPEN_3_0_0_Z44_ZONEEQUIPMENTOUTLETNODE,Air,2
 Node,1085,OFFICE_PRIVATE_3_0_1_Z45_ZONEEQUIPMENTOUTLETNODE,Air,2
 Node,1086,STORAGE_3_0_2_Z46_ZONEEQUIPMENTOUTLETNODE,Air,2
 Node,1087,OFFICE_OPEN_3_1_0_Z47_ZONEEQUIPMENTOUTLETNODE,Air,2
 Node,1088,OFFICE_PRIVATE_3_1_1_Z48_ZONEEQUIPMENTOUTLETNODE,Air,2
 Node,1089,STORAGE_3_1_2_Z49_ZONEEQUIPMENTOUTLETNODE,Air,2
 Node,1090,OFFICE_OPEN_3_2_0_Z50_ZONEEQUIPMENTOUTLETNODE,Air,2
 Node,1091,OFFICE_PRIVATE_3_2_1_Z51_ZONEEQUIPMENTOUTLETNODE,Air,2
 Node,1092,STORAGE_3_2_2_Z52_ZONEEQUIPMENTOUTLETNODE,Air,2
 Node,1093,LOBBY_4_Z53_ZONEEQUIPMENTOUTLETNODE,Air,2
 Node,1094,CONFERENCE_4_Z54_ZONEEQUIPMENTOUTLETNODE,Air,2
 Node,1095,BREAK_ROOM_4_Z55_ZONEEQUIPMENTOUTLETNODE,Air,2
 Node,1096,MECHANICAL_4_Z56_ZONEEQUIPMENTOUTLETNODE,Air,2
 Node,1097,OFFICE_OPEN_4_0_0_Z57_ZONEEQUIPMENTOUTLETNODE,Air,2
 Node,1098,OFFICE_PRIVATE_4_0_1_Z58_ZONEEQUIPMENTOUTLETNODE,Air,2
 Node,1099,STORAGE_4_0_2_Z59_ZONEEQUIPMENTOUTLETNODE,Air,2
 Node,1100,OFFICE_OPEN_4_1_0_Z60_ZONEEQUIPMENTOUTLETNODE,Air,2
 Node,1101,OFFICE_PRIVATE_4_1_1_Z61_ZONEEQUIPMENTOUTLETNODE,Air,2
 Node,1102,STORAGE_4_1_2_Z62_ZONEEQUIPMENTOUTLETNODE,Air,2
 Node,1103,OFFICE_OPEN_4_2_0_Z63_ZONEEQUIPMENTOUTLETNODE,Air,2
 Node,1104,OFFICE_PRIVATE_4_2_1_Z64_ZONEEQUIPMENTOUTLETNODE,Air,2
 Node,1105,STORAGE_4_2_2_Z65_ZONEEQUIPMENTOUTLETNODE,Air,2
 Node,1106,LOBBY_5_Z66_ZONEEQUIPMENTOUTLETNODE,Air,2
 Node,1107,CONFERENCE_5_Z67_ZONEEQUIPMENTOUTLETNODE,Air,2
 Node,1108,BREAK_ROOM_5_Z68_ZONEEQUIPMENTOUTLETNODE,Air,2
 Node,1109,MECHANICAL_5_Z69_ZONEEQUIPMENTOUTLETNODE,Air,2
 Node,1110,OFFICE_OPEN_5_0_0_Z70_ZONEEQUIPMENTOUTLETNODE,Air,2
 Node,1111,OFFICE_PRIVATE_5_0_1_Z71_ZONEEQUIPMENTOUTLETNODE,Air,2
 Node,1112,STORAGE_5_0_2_Z72_ZONEEQUIPMENTOUTLETNODE,Air,2
 Node,1113,OFFICE_OPEN_5_1_0_Z73_ZONEEQUIPMENTOUTLETNODE,Air,2
 Node,1114,OFFICE_PRIVATE_5_1_1_Z74_ZONEEQUIPMENTOUTLETNODE,Air,2
 Node,1115,STORAGE_5_1_2_Z75_ZONEEQUIPMENTOUTLETNODE,Air,2
 Node,1116,OFFICE_OPEN_5_2_0_Z76_ZONEEQUIPMENTOUTLETNODE,Air,2
 Node,1117,OFFICE_PRIVATE_5_2_1_Z77_ZONEEQUIPMENTOUTLETNODE,Air,2
 Node,1118,STORAGE_5_2_2_Z78_ZONEEQUIPMENTOUTLETNODE,Air,2
 Node,1119,LOBBY_6_Z79_ZONEEQUIPMENTOUTLETNODE,Air,2
 Node,1120,CONFERENCE_6_Z80_ZONEEQUIPMENTOUTLETNODE,Air,2
 Node,1121,BREAK_ROOM_6_Z81_ZONEEQUIPMENTOUTLETNODE,Air,2
 Node,1122,MECHANICAL_6_Z82_ZONEEQUIPMENTOUTLETNODE,Air,2
 Node,1123,OFFICE_OPEN_6_0_0_Z83_ZONEEQUIPMENTOUTLETNODE,Air,2
 Node,1124,OFFICE_PRIVATE_6_0_1_Z84_ZONEEQUIPMENTOUTLETNODE,Air,2
 Node,1125,STORAGE_6_0_2_Z85_ZONEEQUIPMENTOUTLETNODE,Air,2
 Node,1126,OFFICE_OPEN_6_1_0_Z86_ZONEEQUIPMENTOUTLETNODE,Air,2
 Node,1127,OFFICE_PRIVATE_6_1_1_Z87_ZONEEQUIPMENTOUTLETNODE,Air,2
 Node,1128,STORAGE_6_1_2_Z88_ZONEEQUIPMENTOUTLETNODE,Air,2
 Node,1129,OFFICE_OPEN_6_2_0_Z89_ZONEEQUIPMENTOUTLETNODE,Air,2
 Node,1130,OFFICE_PRIVATE_6_2_1_Z90_ZONEEQUIPMENTOUTLETNODE,Air,2
 Node,1131,STORAGE_6_2_2_Z91_ZONEEQUIPMENTOUTLETNODE,Air,2
 Node,1132,LOBBY_7_Z92_ZONEEQUIPMENTOUTLETNODE,Air,2
 Node,1133,CONFERENCE_7_Z93_ZONEEQUIPMENTOUTLETNODE,Air,2
 Node,1134,BREAK_ROOM_7_Z94_ZONEEQUIPMENTOUTLETNODE,Air,2
 Node,1135,MECHANICAL_7_Z95_ZONEEQUIPMENTOUTLETNODE,Air,2
 Node,1136,OFFICE_OPEN_7_0_0_Z96_ZONEEQUIPMENTOUTLETNODE,Air,2
 Node,1137,OFFICE_PRIVATE_7_0_1_Z97_ZONEEQUIPMENTOUTLETNODE,Air,2
 Node,1138,STORAGE_7_0_2_Z98_ZONEEQUIPMENTOUTLETNODE,Air,2
 Node,1139,OFFICE_OPEN_7_1_0_Z99_ZONEEQUIPMENTOUTLETNODE,Air,2
 Node,1140,OFFICE_PRIVATE_7_1_1_Z100_ZONEEQUIPMENTOUTLETNODE,Air,2
 Node,1141,STORAGE_7_1_2_Z101_ZONEEQUIPMENTOUTLETNODE,Air,2
 Node,1142,OFFICE_OPEN_7_2_0_Z102_ZONEEQUIPMENTOUTLETNODE,Air,2
 Node,1143,OFFICE_PRIVATE_7_2_1_Z103_ZONEEQUIPMENTOUTLETNODE,Air,2
 Node,1144,STORAGE_7_2_2_Z104_ZONEEQUIPMENTOUTLETNODE,Air,2
 Node,1145,LOBBY_8_Z105_ZONEEQUIPMENTOUTLETNODE,Air,2
 Node,1146,CONFERENCE_8_Z106_ZONEEQUIPMENTOUTLETNODE,Air,2
 Node,1147,BREAK_ROOM_8_Z107_ZONEEQUIPMENTOUTLETNODE,Air,2
 Node,1148,MECHANICAL_8_Z108_ZONEEQUIPMENTOUTLETNODE,Air,2
 Node,1149,OFFICE_OPEN_8_0_0_Z109_ZONEEQUIPMENTOUTLETNODE,Air,2
 Node,1150,OFFICE_PRIVATE_8_0_1_Z110_ZONEEQUIPMENTOUTLETNODE,Air,2
 Node,1151,STORAGE_8_0_2_Z111_ZONEEQUIPMENTOUTLETNODE,Air,2
 Node,1152,OFFICE_OPEN_8_1_0_Z112_ZONEEQUIPMENTOUTLETNODE,Air,2
 Node,1153,OFFICE_PRIVATE_8_1_1_Z113_ZONEEQUIPMENTOUTLETNODE,Air,2
 Node,1154,STORAGE_8_1_2_Z114_ZONEEQUIPMENTOUTLETNODE,Air,2
 Node,1155,OFFICE_OPEN_8_2_0_Z115_ZONEEQUIPMENTOUTLETNODE,Air,2
 Node,1156,OFFICE_PRIVATE_8_2_1_Z116_ZONEEQUIPMENTOUTLETNODE,Air,2
 Node,1157,STORAGE_8_2_2_Z117_ZONEEQUIPMENTOUTLETNODE,Air,2
 Node,1158,LOBBY_9_Z118_ZONEEQUIPMENTOUTLETNODE,Air,2
 Node,1159,CONFERENCE_9_Z119_ZONEEQUIPMENTOUTLETNODE,Air,2
 Node,1160,BREAK_ROOM_9_Z120_ZONEEQUIPMENTOUTLETNODE,Air,2
 Node,1161,MECHANICAL_9_Z121_ZONEEQUIPMENTOUTLETNODE,Air,2
 Node,1162,OFFICE_OPEN_9_0_0_Z122_ZONEEQUIPMENTOUTLETNODE,Air,2
 Node,1163,OFFICE_PRIVATE_9_0_1_Z123_ZONEEQUIPMENTOUTLETNODE,Air,2
 Node,1164,STORAGE_9_0_2_Z124_ZONEEQUIPMENTOUTLETNODE,Air,2
 Node,1165,OFFICE_OPEN_9_1_0_Z125_ZONEEQUIPMENTOUTLETNODE,Air,2
 Node,1166,OFFICE_PRIVATE_9_1_1_Z126_ZONEEQUIPMENTOUTLETNODE,Air,2
 Node,1167,STORAGE_9_1_2_Z127_ZONEEQUIPMENTOUTLETNODE,Air,2
 Node,1168,OFFICE_OPEN_9_2_0_Z128_ZONEEQUIPMENTOUTLETNODE,Air,2
 Node,1169,OFFICE_PRIVATE_9_2_1_Z129_ZONEEQUIPMENTOUTLETNODE,Air,2
 Node,1170,STORAGE_9_2_2_Z130_ZONEEQUIPMENTOUTLETNODE,Air,2
 Node,1171,LOBBY_0_Z1_TERMINALINLET,Air,1
 Node,1172,CONFERENCE_0_Z2_TERMINALINLET,Air,1
 Node,1173,BREAK_ROOM_0_Z3_TERMINALINLET,Air,1
 Node,1174,MECHANICAL_0_Z4_TERMINALINLET,Air,1
 Node,1175,OFFICE_OPEN_0_0_0_Z5_TERMINALINLET,Air,1
 Node,1176,OFFICE_PRIVATE_0_0_1_Z6_TERMINALINLET,Air,1
 Node,1177,STORAGE_0_0_2_Z7_TERMINALINLET,Air,1
 Node,1178,OFFICE_OPEN_0_1_0_Z8_TERMINALINLET,Air,1
 Node,1179,OFFICE_PRIVATE_0_1_1_Z9_TERMINALINLET,Air,1
 Node,1180,STORAGE_0_1_2_Z10_TERMINALINLET,Air,1
 Node,1181,OFFICE_OPEN_0_2_0_Z11_TERMINALINLET,Air,1
 Node,1182,OFFICE_PRIVATE_0_2_1_Z12_TERMINALINLET,Air,1
 Node,1183,STORAGE_0_2_2_Z13_TERMINALINLET,Air,1
 Node,1184,LOBBY_1_Z14_TERMINALINLET,Air,1
 Node,1185,CONFERENCE_1_Z15_TERMINALINLET,Air,1
 Node,1186,BREAK_ROOM_1_Z16_TERMINALINLET,Air,1
 Node,1187,MECHANICAL_1_Z17_TERMINALINLET,Air,1
 Node,1188,OFFICE_OPEN_1_0_0_Z18_TERMINALINLET,Air,1
 Node,1189,OFFICE_PRIVATE_1_0_1_Z19_TERMINALINLET,Air,1
 Node,1190,STORAGE_1_0_2_Z20_TERMINALINLET,Air,1
 Node,1191,OFFICE_OPEN_1_1_0_Z21_TERMINALINLET,Air,1
 Node,1192,OFFICE_PRIVATE_1_1_1_Z22_TERMINALINLET,Air,1
 Node,1193,STORAGE_1_1_2_Z23_TERMINALINLET,Air,1
 Node,1194,OFFICE_OPEN_1_2_0_Z24_TERMINALINLET,Air,1
 Node,1195,OFFICE_PRIVATE_1_2_1_Z25_TERMINALINLET,Air,1
 Node,1196,STORAGE_1_2_2_Z26_TERMINALINLET,Air,1
 Node,1197,LOBBY_2_Z27_TERMINALINLET,Air,1
 Node,1198,CONFERENCE_2_Z28_TERMINALINLET,Air,1
 Node,1199,BREAK_ROOM_2_Z29_TERMINALINLET,Air,1
 Node,1200,MECHANICAL_2_Z30_TERMINALINLET,Air,1
 Node,1201,OFFICE_OPEN_2_0_0_Z31_TERMINALINLET,Air,1
 Node,1202,OFFICE_PRIVATE_2_0_1_Z32_TERMINALINLET,Air,1
 Node,1203,STORAGE_2_0_2_Z33_TERMINALINLET,Air,1
 Node,1204,OFFICE_OPEN_2_1_0_Z34_TERMINALINLET,Air,1
 Node,1205,OFFICE_PRIVATE_2_1_1_Z35_TERMINALINLET,Air,1
 Node,1206,STORAGE_2_1_2_Z36_TERMINALINLET,Air,1
 Node,1207,OFFICE_OPEN_2_2_0_Z37_TERMINALINLET,Air,1
 Node,1208,OFFICE_PRIVATE_2_2_1_Z38_TERMINALINLET,Air,1
 Node,1209,STORAGE_2_2_2_Z39_TERMINALINLET,Air,1
 Node,1210,LOBBY_3_Z40_TERMINALINLET,Air,1
 Node,1211,CONFERENCE_3_Z41_TERMINALINLET,Air,1
 Node,1212,BREAK_ROOM_3_Z42_TERMINALINLET,Air,1
 Node,1213,MECHANICAL_3_Z43_TERMINALINLET,Air,1
 Node,1214,OFFICE_OPEN_3_0_0_Z44_TERMINALINLET,Air,1
 Node,1215,OFFICE_PRIVATE_3_0_1_Z45_TERMINALINLET,Air,1
 Node,1216,STORAGE_3_0_2_Z46_TERMINALINLET,Air,1
 Node,1217,OFFICE_OPEN_3_1_0_Z47_TERMINALINLET,Air,1
 Node,1218,OFFICE_PRIVATE_3_1_1_Z48_TERMINALINLET,Air,1
 Node,1219,STORAGE_3_1_2_Z49_TERMINALINLET,Air,1
 Node,1220,OFFICE_OPEN_3_2_0_Z50_TERMINALINLET,Air,1
 Node,1221,OFFICE_PRIVATE_3_2_1_Z51_TERMINALINLET,Air,1
 Node,1222,STORAGE_3_2_2_Z52_TERMINALINLET,Air,1
 Node,1223,LOBBY_4_Z53_TERMINALINLET,Air,1
 Node,1224,CONFERENCE_4_Z54_TERMINALINLET,Air,1
 Node,1225,BREAK_ROOM_4_Z55_TERMINALINLET,Air,1
 Node,1226,MECHANICAL_4_Z56_TERMINALINLET,Air,1
 Node,1227,OFFICE_OPEN_4_0_0_Z57_TERMINALINLET,Air,1
 Node,1228,OFFICE_PRIVATE_4_0_1_Z58_TERMINALINLET,Air,1
 Node,1229,STORAGE_4_0_2_Z59_TERMINALINLET,Air,1
 Node,1230,OFFICE_OPEN_4_1_0_Z60_TERMINALINLET,Air,1
 Node,1231,OFFICE_PRIVATE_4_1_1_Z61_TERMINALINLET,Air,1
 Node,1232,STORAGE_4_1_2_Z62_TERMINALINLET,Air,1
 Node,1233,OFFICE_OPEN_4_2_0_Z63_TERMINALINLET,Air,1
 Node,1234,OFFICE_PRIVATE_4_2_1_Z64_TERMINALINLET,Air,1
 Node,1235,STORAGE_4_2_2_Z65_TERMINALINLET,Air,1
 Node,1236,LOBBY_5_Z66_TERMINALINLET,Air,1
 Node,1237,CONFERENCE_5_Z67_TERMINALINLET,Air,1
 Node,1238,BREAK_ROOM_5_Z68_TERMINALINLET,Air,1
 Node,1239,MECHANICAL_5_Z69_TERMINALINLET,Air,1
 Node,1240,OFFICE_OPEN_5_0_0_Z70_TERMINALINLET,Air,1
 Node,1241,OFFICE_PRIVATE_5_0_1_Z71_TERMINALINLET,Air,1
 Node,1242,STORAGE_5_0_2_Z72_TERMINALINLET,Air,1
 Node,1243,OFFICE_OPEN_5_1_0_Z73_TERMINALINLET,Air,1
 Node,1244,OFFICE_PRIVATE_5_1_1_Z74_TERMINALINLET,Air,1
 Node,1245,STORAGE_5_1_2_Z75_TERMINALINLET,Air,1
 Node,1246,OFFICE_OPEN_5_2_0_Z76_TERMINALINLET,Air,1
 Node,1247,OFFICE_PRIVATE_5_2_1_Z77_TERMINALINLET,Air,1
 Node,1248,STORAGE_5_2_2_Z78_TERMINALINLET,Air,1
 Node,1249,LOBBY_6_Z79_TERMINALINLET,Air,1
 Node,1250,CONFERENCE_6_Z80_TERMINALINLET,Air,1
 Node,1251,BREAK_ROOM_6_Z81_TERMINALINLET,Air,1
 Node,1252,MECHANICAL_6_Z82_TERMINALINLET,Air,1
 Node,1253,OFFICE_OPEN_6_0_0_Z83_TERMINALINLET,Air,1
 Node,1254,OFFICE_PRIVATE_6_0_1_Z84_TERMINALINLET,Air,1
 Node,1255,STORAGE_6_0_2_Z85_TERMINALINLET,Air,1
 Node,1256,OFFICE_OPEN_6_1_0_Z86_TERMINALINLET,Air,1
 Node,1257,OFFICE_PRIVATE_6_1_1_Z87_TERMINALINLET,Air,1
 Node,1258,STORAGE_6_1_2_Z88_TERMINALINLET,Air,1
 Node,1259,OFFICE_OPEN_6_2_0_Z89_TERMINALINLET,Air,1
 Node,1260,OFFICE_PRIVATE_6_2_1_Z90_TERMINALINLET,Air,1
 Node,1261,STORAGE_6_2_2_Z91_TERMINALINLET,Air,1
 Node,1262,LOBBY_7_Z92_TERMINALINLET,Air,1
 Node,1263,CONFERENCE_7_Z93_TERMINALINLET,Air,1
 Node,1264,BREAK_ROOM_7_Z94_TERMINALINLET,Air,1
 Node,1265,MECHANICAL_7_Z95_TERMINALINLET,Air,1
 Node,1266,OFFICE_OPEN_7_0_0_Z96_TERMINALINLET,Air,1
 Node,1267,OFFICE_PRIVATE_7_0_1_Z97_TERMINALINLET,Air,1
 Node,1268,STORAGE_7_0_2_Z98_TERMINALINLET,Air,1
 Node,1269,OFFICE_OPEN_7_1_0_Z99_TERMINALINLET,Air,1
 Node,1270,OFFICE_PRIVATE_7_1_1_Z100_TERMINALINLET,Air,1
 Node,1271,STORAGE_7_1_2_Z101_TERMINALINLET,Air,1
 Node,1272,OFFICE_OPEN_7_2_0_Z102_TERMINALINLET,Air,1
 Node,1273,OFFICE_PRIVATE_7_2_1_Z103_TERMINALINLET,Air,1
 Node,1274,STORAGE_7_2_2_Z104_TERMINALINLET,Air,1
 Node,1275,LOBBY_8_Z105_TERMINALINLET,Air,1
 Node,1276,CONFERENCE_8_Z106_TERMINALINLET,Air,1
 Node,1277,BREAK_ROOM_8_Z107_TERMINALINLET,Air,1
 Node,1278,MECHANICAL_8_Z108_TERMINALINLET,Air,1
 Node,1279,OFFICE_OPEN_8_0_0_Z109_TERMINALINLET,Air,1
 Node,1280,OFFICE_PRIVATE_8_0_1_Z110_TERMINALINLET,Air,1
 Node,1281,STORAGE_8_0_2_Z111_TERMINALINLET,Air,1
 Node,1282,OFFICE_OPEN_8_1_0_Z112_TERMINALINLET,Air,1
 Node,1283,OFFICE_PRIVATE_8_1_1_Z113_TERMINALINLET,Air,1
 Node,1284,STORAGE_8_1_2_Z114_TERMINALINLET,Air,1
 Node,1285,OFFICE_OPEN_8_2_0_Z115_TERMINALINLET,Air,1
 Node,1286,OFFICE_PRIVATE_8_2_1_Z116_TERMINALINLET,Air,1
 Node,1287,STORAGE_8_2_2_Z117_TERMINALINLET,Air,1
 Node,1288,LOBBY_9_Z118_TERMINALINLET,Air,1
 Node,1289,CONFERENCE_9_Z119_TERMINALINLET,Air,1
 Node,1290,BREAK_ROOM_9_Z120_TERMINALINLET,Air,1
 Node,1291,MECHANICAL_9_Z121_TERMINALINLET,Air,1
 Node,1292,OFFICE_OPEN_9_0_0_Z122_TERMINALINLET,Air,1
 Node,1293,OFFICE_PRIVATE_9_0_1_Z123_TERMINALINLET,Air,1
 Node,1294,STORAGE_9_0_2_Z124_TERMINALINLET,Air,1
 Node,1295,OFFICE_OPEN_9_1_0_Z125_TERMINALINLET,Air,1
 Node,1296,OFFICE_PRIVATE_9_1_1_Z126_TERMINALINLET,Air,1
 Node,1297,STORAGE_9_1_2_Z127_TERMINALINLET,Air,1
 Node,1298,OFFICE_OPEN_9_2_0_Z128_TERMINALINLET,Air,1
 Node,1299,OFFICE_PRIVATE_9_2_1_Z129_TERMINALINLET,Air,1
 Node,1300,STORAGE_9_2_2_Z130_TERMINALINLET,Air,1
 Node,1301,LOBBY_0_Z1_TERMINALOUTLET,Air,1
 Node,1302,CONFERENCE_0_Z2_TERMINALOUTLET,Air,1
 Node,1303,BREAK_ROOM_0_Z3_TERMINALOUTLET,Air,1
 Node,1304,MECHANICAL_0_Z4_TERMINALOUTLET,Air,1
 Node,1305,OFFICE_OPEN_0_0_0_Z5_TERMINALOUTLET,Air,1
 Node,1306,OFFICE_PRIVATE_0_0_1_Z6_TERMINALOUTLET,Air,1
 Node,1307,STORAGE_0_0_2_Z7_TERMINALOUTLET,Air,1
 Node,1308,OFFICE_OPEN_0_1_0_Z8_TERMINALOUTLET,Air,1
 Node,1309,OFFICE_PRIVATE_0_1_1_Z9_TERMINALOUTLET,Air,1
 Node,1310,STORAGE_0_1_2_Z10_TERMINALOUTLET,Air,1
 Node,1311,OFFICE_OPEN_0_2_0_Z11_TERMINALOUTLET,Air,1
 Node,1312,OFFICE_PRIVATE_0_2_1_Z12_TERMINALOUTLET,Air,1
 Node,1313,STORAGE_0_2_2_Z13_TERMINALOUTLET,Air,1
 Node,1314,LOBBY_1_Z14_TERMINALOUTLET,Air,1
 Node,1315,CONFERENCE_1_Z15_TERMINALOUTLET,Air,1
 Node,1316,BREAK_ROOM_1_Z16_TERMINALOUTLET,Air,1
 Node,1317,MECHANICAL_1_Z17_TERMINALOUTLET,Air,1
 Node,1318,OFFICE_OPEN_1_0_0_Z18_TERMINALOUTLET,Air,1
 Node,1319,OFFICE_PRIVATE_1_0_1_Z19_TERMINALOUTLET,Air,1
 Node,1320,STORAGE_1_0_2_Z20_TERMINALOUTLET,Air,1
 Node,1321,OFFICE_OPEN_1_1_0_Z21_TERMINALOUTLET,Air,1
 Node,1322,OFFICE_PRIVATE_1_1_1_Z22_TERMINALOUTLET,Air,1
 Node,1323,STORAGE_1_1_2_Z23_TERMINALOUTLET,Air,1
 Node,1324,OFFICE_OPEN_1_2_0_Z24_TERMINALOUTLET,Air,1
 Node,1325,OFFICE_PRIVATE_1_2_1_Z25_TERMINALOUTLET,Air,1
 Node,1326,STORAGE_1_2_2_Z26_TERMINALOUTLET,Air,1
 Node,1327,LOBBY_2_Z27_TERMINALOUTLET,Air,1
 Node,1328,CONFERENCE_2_Z28_TERMINALOUTLET,Air,1
 Node,1329,BREAK_ROOM_2_Z29_TERMINALOUTLET,Air,1
 Node,1330,MECHANICAL_2_Z30_TERMINALOUTLET,Air,1
 Node,1331,OFFICE_OPEN_2_0_0_Z31_TERMINALOUTLET,Air,1
 Node,1332,OFFICE_PRIVATE_2_0_1_Z32_TERMINALOUTLET,Air,1
 Node,1333,STORAGE_2_0_2_Z33_TERMINALOUTLET,Air,1
 Node,1334,OFFICE_OPEN_2_1_0_Z34_TERMINALOUTLET,Air,1
 Node,1335,OFFICE_PRIVATE_2_1_1_Z35_TERMINALOUTLET,Air,1
 Node,1336,STORAGE_2_1_2_Z36_TERMINALOUTLET,Air,1
 Node,1337,OFFICE_OPEN_2_2_0_Z37_TERMINALOUTLET,Air,1
 Node,1338,OFFICE_PRIVATE_2_2_1_Z38_TERMINALOUTLET,Air,1
 Node,1339,STORAGE_2_2_2_Z39_TERMINALOUTLET,Air,1
 Node,1340,LOBBY_3_Z40_TERMINALOUTLET,Air,1
 Node,1341,CONFERENCE_3_Z41_TERMINALOUTLET,Air,1
 Node,1342,BREAK_ROOM_3_Z42_TERMINALOUTLET,Air,1
 Node,1343,MECHANICAL_3_Z43_TERMINALOUTLET,Air,1
 Node,1344,OFFICE_OPEN_3_0_0_Z44_TERMINALOUTLET,Air,1
 Node,1345,OFFICE_PRIVATE_3_0_1_Z45_TERMINALOUTLET,Air,1
 Node,1346,STORAGE_3_0_2_Z46_TERMINALOUTLET,Air,1
 Node,1347,OFFICE_OPEN_3_1_0_Z47_TERMINALOUTLET,Air,1
 Node,1348,OFFICE_PRIVATE_3_1_1_Z48_TERMINALOUTLET,Air,1
 Node,1349,STORAGE_3_1_2_Z49_TERMINALOUTLET,Air,1
 Node,1350,OFFICE_OPEN_3_2_0_Z50_TERMINALOUTLET,Air,1
 Node,1351,OFFICE_PRIVATE_3_2_1_Z51_TERMINALOUTLET,Air,1
 Node,1352,STORAGE_3_2_2_Z52_TERMINALOUTLET,Air,1
 Node,1353,LOBBY_4_Z53_TERMINALOUTLET,Air,1
 Node,1354,CONFERENCE_4_Z54_TERMINALOUTLET,Air,1
 Node,1355,BREAK_ROOM_4_Z55_TERMINALOUTLET,Air,1
 Node,1356,MECHANICAL_4_Z56_TERMINALOUTLET,Air,1
 Node,1357,OFFICE_OPEN_4_0_0_Z57_TERMINALOUTLET,Air,1
 Node,1358,OFFICE_PRIVATE_4_0_1_Z58_TERMINALOUTLET,Air,1
 Node,1359,STORAGE_4_0_2_Z59_TERMINALOUTLET,Air,1
 Node,1360,OFFICE_OPEN_4_1_0_Z60_TERMINALOUTLET,Air,1
 Node,1361,OFFICE_PRIVATE_4_1_1_Z61_TERMINALOUTLET,Air,1
 Node,1362,STORAGE_4_1_2_Z62_TERMINALOUTLET,Air,1
 Node,1363,OFFICE_OPEN_4_2_0_Z63_TERMINALOUTLET,Air,1
 Node,1364,OFFICE_PRIVATE_4_2_1_Z64_TERMINALOUTLET,Air,1
 Node,1365,STORAGE_4_2_2_Z65_TERMINALOUTLET,Air,1
 Node,1366,LOBBY_5_Z66_TERMINALOUTLET,Air,1
 Node,1367,CONFERENCE_5_Z67_TERMINALOUTLET,Air,1
 Node,1368,BREAK_ROOM_5_Z68_TERMINALOUTLET,Air,1
 Node,1369,MECHANICAL_5_Z69_TERMINALOUTLET,Air,1
 Node,1370,OFFICE_OPEN_5_0_0_Z70_TERMINALOUTLET,Air,1
 Node,1371,OFFICE_PRIVATE_5_0_1_Z71_TERMINALOUTLET,Air,1
 Node,1372,STORAGE_5_0_2_Z72_TERMINALOUTLET,Air,1
 Node,1373,OFFICE_OPEN_5_1_0_Z73_TERMINALOUTLET,Air,1
 Node,1374,OFFICE_PRIVATE_5_1_1_Z74_TERMINALOUTLET,Air,1
 Node,1375,STORAGE_5_1_2_Z75_TERMINALOUTLET,Air,1
 Node,1376,OFFICE_OPEN_5_2_0_Z76_TERMINALOUTLET,Air,1
 Node,1377,OFFICE_PRIVATE_5_2_1_Z77_TERMINALOUTLET,Air,1
 Node,1378,STORAGE_5_2_2_Z78_TERMINALOUTLET,Air,1
 Node,1379,LOBBY_6_Z79_TERMINALOUTLET,Air,1
 Node,1380,CONFERENCE_6_Z80_TERMINALOUTLET,Air,1
 Node,1381,BREAK_ROOM_6_Z81_TERMINALOUTLET,Air,1
 Node,1382,MECHANICAL_6_Z82_TERMINALOUTLET,Air,1
 Node,1383,OFFICE_OPEN_6_0_0_Z83_TERMINALOUTLET,Air,1
 Node,1384,OFFICE_PRIVATE_6_0_1_Z84_TERMINALOUTLET,Air,1
 Node,1385,STORAGE_6_0_2_Z85_TERMINALOUTLET,Air,1
 Node,1386,OFFICE_OPEN_6_1_0_Z86_TERMINALOUTLET,Air,1
 Node,1387,OFFICE_PRIVATE_6_1_1_Z87_TERMINALOUTLET,Air,1
 Node,1388,STORAGE_6_1_2_Z88_TERMINALOUTLET,Air,1
 Node,1389,OFFICE_OPEN_6_2_0_Z89_TERMINALOUTLET,Air,1
 Node,1390,OFFICE_PRIVATE_6_2_1_Z90_TERMINALOUTLET,Air,1
 Node,1391,STORAGE_6_2_2_Z91_TERMINALOUTLET,Air,1
 Node,1392,LOBBY_7_Z92_TERMINALOUTLET,Air,1
 Node,1393,CONFERENCE_7_Z93_TERMINALOUTLET,Air,1
 Node,1394,BREAK_ROOM_7_Z94_TERMINALOUTLET,Air,1
 Node,1395,MECHANICAL_7_Z95_TERMINALOUTLET,Air,1
 Node,1396,OFFICE_OPEN_7_0_0_Z96_TERMINALOUTLET,Air,1
 Node,1397,OFFICE_PRIVATE_7_0_1_Z97_TERMINALOUTLET,Air,1
 Node,1398,STORAGE_7_0_2_Z98_TERMINALOUTLET,Air,1
 Node,1399,OFFICE_OPEN_7_1_0_Z99_TERMINALOUTLET,Air,1
 Node,1400,OFFICE_PRIVATE_7_1_1_Z100_TERMINALOUTLET,Air,1
 Node,1401,STORAGE_7_1_2_Z101_TERMINALOUTLET,Air,1
 Node,1402,OFFICE_OPEN_7_2_0_Z102_TERMINALOUTLET,Air,1
 Node,1403,OFFICE_PRIVATE_7_2_1_Z103_TERMINALOUTLET,Air,1
 Node,1404,STORAGE_7_2_2_Z104_TERMINALOUTLET,Air,1
 Node,1405,LOBBY_8_Z105_TERMINALOUTLET,Air,1
 Node,1406,CONFERENCE_8_Z106_TERMINALOUTLET,Air,1
 Node,1407,BREAK_ROOM_8_Z107_TERMINALOUTLET,Air,1
 Node,1408,MECHANICAL_8_Z108_TERMINALOUTLET,Air,1
 Node,1409,OFFICE_OPEN_8_0_0_Z109_TERMINALOUTLET,Air,1
 Node,1410,OFFICE_PRIVATE_8_0_1_Z110_TERMINALOUTLET,Air,1
 Node,1411,STORAGE_8_0_2_Z111_TERMINALOUTLET,Air,1
 Node,1412,OFFICE_OPEN_8_1_0_Z112_TERMINALOUTLET,Air,1
 Node,1413,OFFICE_PRIVATE_8_1_1_Z113_TERMINALOUTLET,Air,1
 Node,1414,STORAGE_8_1_2_Z114_TERMINALOUTLET,Air,1
 Node,1415,OFFICE_OPEN_8_2_0_Z115_TERMINALOUTLET,Air,1
 Node,1416,OFFICE_PRIVATE_8_2_1_Z116_TERMINALOUTLET,Air,1
 Node,1417,STORAGE_8_2_2_Z117_TERMINALOUTLET,Air,1
 Node,1418,LOBBY_9_Z118_TERMINALOUTLET,Air,1
 Node,1419,CONFERENCE_9_Z119_TERMINALOUTLET,Air,1
 Node,1420,BREAK_ROOM_9_Z120_TERMINALOUTLET,Air,1
 Node,1421,MECHANICAL_9_Z121_TERMINALOUTLET,Air,1
 Node,1422,OFFICE_OPEN_9_0_0_Z122_TERMINALOUTLET,Air,1
 Node,1423,OFFICE_PRIVATE_9_0_1_Z123_TERMINALOUTLET,Air,1
 Node,1424,STORAGE_9_0_2_Z124_TERMINALOUTLET,Air,1
 Node,1425,OFFICE_OPEN_9_1_0_Z125_TERMINALOUTLET,Air,1
 Node,1426,OFFICE_PRIVATE_9_1_1_Z126_TERMINALOUTLET,Air,1
 Node,1427,STORAGE_9_1_2_Z127_TERMINALOUTLET,Air,1
 Node,1428,OFFICE_OPEN_9_2_0_Z128_TERMINALOUTLET,Air,1
 Node,1429,OFFICE_PRIVATE_9_2_1_Z129_TERMINALOUTLET,Air,1
 Node,1430,STORAGE_9_2_2_Z130_TERMINALOUTLET,Air,1
! ===============================================================
! Suspicious nodes have 0 references.  It is normal for some nodes, however.
! Listing nodes with 0 references (culled from previous list):
! <Suspicious Node>,<NodeNumber>,<Node Name>,<Node Fluid Type>,<# Times Node Referenced After Definition>
 Suspicious Node,651,LOBBY_0 AIR NODE,Air,0
 Suspicious Node,653,CONFERENCE_0 AIR NODE,Air,0
 Suspicious Node,655,BREAK_ROOM_0 AIR NODE,Air,0
 Suspicious Node,657,MECHANICAL_0 AIR NODE,Air,0
 Suspicious Node,659,OFFICE_OPEN_0_0_0 AIR NODE,Air,0
 Suspicious Node,661,OFFICE_PRIVATE_0_0_1 AIR NODE,Air,0
 Suspicious Node,663,STORAGE_0_0_2 AIR NODE,Air,0
 Suspicious Node,665,OFFICE_OPEN_0_1_0 AIR NODE,Air,0
 Suspicious Node,667,OFFICE_PRIVATE_0_1_1 AIR NODE,Air,0
 Suspicious Node,669,STORAGE_0_1_2 AIR NODE,Air,0
 Suspicious Node,671,OFFICE_OPEN_0_2_0 AIR NODE,Air,0
 Suspicious Node,673,OFFICE_PRIVATE_0_2_1 AIR NODE,Air,0
 Suspicious Node,675,STORAGE_0_2_2 AIR NODE,Air,0
 Suspicious Node,677,LOBBY_1 AIR NODE,Air,0
 Suspicious Node,679,CONFERENCE_1 AIR NODE,Air,0
 Suspicious Node,681,BREAK_ROOM_1 AIR NODE,Air,0
 Suspicious Node,683,MECHANICAL_1 AIR NODE,Air,0
 Suspicious Node,685,OFFICE_OPEN_1_0_0 AIR NODE,Air,0
 Suspicious Node,687,OFFICE_PRIVATE_1_0_1 AIR NODE,Air,0
 Suspicious Node,689,STORAGE_1_0_2 AIR NODE,Air,0
 Suspicious Node,691,OFFICE_OPEN_1_1_0 AIR NODE,Air,0
 Suspicious Node,693,OFFICE_PRIVATE_1_1_1 AIR NODE,Air,0
 Suspicious Node,695,STORAGE_1_1_2 AIR NODE,Air,0
 Suspicious Node,697,OFFICE_OPEN_1_2_0 AIR NODE,Air,0
 Suspicious Node,699,OFFICE_PRIVATE_1_2_1 AIR NODE,Air,0
 Suspicious Node,701,STORAGE_1_2_2 AIR NODE,Air,0
 Suspicious Node,703,LOBBY_2 AIR NODE,Air,0
 Suspicious Node,705,CONFERENCE_2 AIR NODE,Air,0
 Suspicious Node,707,BREAK_ROOM_2 AIR NODE,Air,0
 Suspicious Node,709,MECHANICAL_2 AIR NODE,Air,0
 Suspicious Node,711,OFFICE_OPEN_2_0_0 AIR NODE,Air,0
 Suspicious Node,713,OFFICE_PRIVATE_2_0_1 AIR NODE,Air,0
 Suspicious Node,715,STORAGE_2_0_2 AIR NODE,Air,0
 Suspicious Node,717,OFFICE_OPEN_2_1_0 AIR NODE,Air,0
 Suspicious Node,719,OFFICE_PRIVATE_2_1_1 AIR NODE,Air,0
 Suspicious Node,721,STORAGE_2_1_2 AIR NODE,Air,0
 Suspicious Node,723,OFFICE_OPEN_2_2_0 AIR NODE,Air,0
 Suspicious Node,725,OFFICE_PRIVATE_2_2_1 AIR NODE,Air,0
 Suspicious Node,727,STORAGE_2_2_2 AIR NODE,Air,0
 Suspicious Node,729,LOBBY_3 AIR NODE,Air,0
 Suspicious Node,731,CONFERENCE_3 AIR NODE,Air,0
 Suspicious Node,733,BREAK_ROOM_3 AIR NODE,Air,0
 Suspicious Node,735,MECHANICAL_3 AIR NODE,Air,0
 Suspicious Node,737,OFFICE_OPEN_3_0_0 AIR NODE,Air,0
 Suspicious Node,739,OFFICE_PRIVATE_3_0_1 AIR NODE,Air,0
 Suspicious Node,741,STORAGE_3_0_2 AIR NODE,Air,0
 Suspicious Node,743,OFFICE_OPEN_3_1_0 AIR NODE,Air,0
 Suspicious Node,745,OFFICE_PRIVATE_3_1_1 AIR NODE,Air,0
 Suspicious Node,747,STORAGE_3_1_2 AIR NODE,Air,0
 Suspicious Node,749,OFFICE_OPEN_3_2_0 AIR NODE,Air,0
 Suspicious Node,751,OFFICE_PRIVATE_3_2_1 AIR NODE,Air,0
 Suspicious Node,753,STORAGE_3_2_2 AIR NODE,Air,0
 Suspicious Node,755,LOBBY_4 AIR NODE,Air,0
 Suspicious Node,757,CONFERENCE_4 AIR NODE,Air,0
 Suspicious Node,759,BREAK_ROOM_4 AIR NODE,Air,0
 Suspicious Node,761,MECHANICAL_4 AIR NODE,Air,0
 Suspicious Node,763,OFFICE_OPEN_4_0_0 AIR NODE,Air,0
 Suspicious Node,765,OFFICE_PRIVATE_4_0_1 AIR NODE,Air,0
 Suspicious Node,767,STORAGE_4_0_2 AIR NODE,Air,0
 Suspicious Node,769,OFFICE_OPEN_4_1_0 AIR NODE,Air,0
 Suspicious Node,771,OFFICE_PRIVATE_4_1_1 AIR NODE,Air,0
 Suspicious Node,773,STORAGE_4_1_2 AIR NODE,Air,0
 Suspicious Node,775,OFFICE_OPEN_4_2_0 AIR NODE,Air,0
 Suspicious Node,777,OFFICE_PRIVATE_4_2_1 AIR NODE,Air,0
 Suspicious Node,779,STORAGE_4_2_2 AIR NODE,Air,0
 Suspicious Node,781,LOBBY_5 AIR NODE,Air,0
 Suspicious Node,783,CONFERENCE_5 AIR NODE,Air,0
 Suspicious Node,785,BREAK_ROOM_5 AIR NODE,Air,0
 Suspicious Node,787,MECHANICAL_5 AIR NODE,Air,0
 Suspicious Node,789,OFFICE_OPEN_5_0_0 AIR NODE,Air,0
 Suspicious Node,791,OFFICE_PRIVATE_5_0_1 AIR NODE,Air,0
 Suspicious Node,793,STORAGE_5_0_2 AIR NODE,Air,0
 Suspicious Node,795,OFFICE_OPEN_5_1_0 AIR NODE,Air,0
 Suspicious Node,797,OFFICE_PRIVATE_5_1_1 AIR NODE,Air,0
 Suspicious Node,799,STORAGE_5_1_2 AIR NODE,Air,0
 Suspicious Node,801,OFFICE_OPEN_5_2_0 AIR NODE,Air,0
 Suspicious Node,803,OFFICE_PRIVATE_5_2_1 AIR NODE,Air,0
 Suspicious Node,805,STORAGE_5_2_2 AIR NODE,Air,0
 Suspicious Node,807,LOBBY_6 AIR NODE,Air,0
 Suspicious Node,809,CONFERENCE_6 AIR NODE,Air,0
 Suspicious Node,811,BREAK_ROOM_6 AIR NODE,Air,0
 Suspicious Node,813,MECHANICAL_6 AIR NODE,Air,0
 Suspicious Node,815,OFFICE_OPEN_6_0_0 AIR NODE,Air,0
 Suspicious Node,817,OFFICE_PRIVATE_6_0_1 AIR NODE,Air,0
 Suspicious Node,819,STORAGE_6_0_2 AIR NODE,Air,0
 Suspicious Node,821,OFFICE_OPEN_6_1_0 AIR NODE,Air,0
 Suspicious Node,823,OFFICE_PRIVATE_6_1_1 AIR NODE,Air,0
 Suspicious Node,825,STORAGE_6_1_2 AIR NODE,Air,0
 Suspicious Node,827,OFFICE_OPEN_6_2_0 AIR NODE,Air,0
 Suspicious Node,829,OFFICE_PRIVATE_6_2_1 AIR NODE,Air,0
 Suspicious Node,831,STORAGE_6_2_2 AIR NODE,Air,0
 Suspicious Node,833,LOBBY_7 AIR NODE,Air,0
 Suspicious Node,835,CONFERENCE_7 AIR NODE,Air,0
 Suspicious Node,837,BREAK_ROOM_7 AIR NODE,Air,0
 Suspicious Node,839,MECHANICAL_7 AIR NODE,Air,0
 Suspicious Node,841,OFFICE_OPEN_7_0_0 AIR NODE,Air,0
 Suspicious Node,843,OFFICE_PRIVATE_7_0_1 AIR NODE,Air,0
 Suspicious Node,845,STORAGE_7_0_2 AIR NODE,Air,0
 Suspicious Node,847,OFFICE_OPEN_7_1_0 AIR NODE,Air,0
 Suspicious Node,849,OFFICE_PRIVATE_7_1_1 AIR NODE,Air,0
 Suspicious Node,851,STORAGE_7_1_2 AIR NODE,Air,0
 Suspicious Node,853,OFFICE_OPEN_7_2_0 AIR NODE,Air,0
 Suspicious Node,855,OFFICE_PRIVATE_7_2_1 AIR NODE,Air,0
 Suspicious Node,857,STORAGE_7_2_2 AIR NODE,Air,0
 Suspicious Node,859,LOBBY_8 AIR NODE,Air,0
 Suspicious Node,861,CONFERENCE_8 AIR NODE,Air,0
 Suspicious Node,863,BREAK_ROOM_8 AIR NODE,Air,0
 Suspicious Node,865,MECHANICAL_8 AIR NODE,Air,0
 Suspicious Node,867,OFFICE_OPEN_8_0_0 AIR NODE,Air,0
 Suspicious Node,869,OFFICE_PRIVATE_8_0_1 AIR NODE,Air,0
 Suspicious Node,871,STORAGE_8_0_2 AIR NODE,Air,0
[...]
 Non-Parent Node Connection,LOBBY_3_Z40_COOLC-HEATCNODE,COIL:COOLING:DX:SINGLESPEED,LOBBY_3_Z40_COOLINGCOILDX,Outlet,1
 Non-Parent Node Connection,CONFERENCE_3_Z41_SUPPLYINLET,COIL:COOLING:DX:SINGLESPEED,CONFERENCE_3_Z41_COOLINGCOILDX,Inlet,1
 Non-Parent Node Connection,CONFERENCE_3_Z41_COOLC-HEATCNODE,COIL:COOLING:DX:SINGLESPEED,CONFERENCE_3_Z41_COOLINGCOILDX,Outlet,1
 Non-Parent Node Connection,BREAK_ROOM_3_Z42_SUPPLYINLET,COIL:COOLING:DX:SINGLESPEED,BREAK_ROOM_3_Z42_COOLINGCOILDX,Inlet,1
 Non-Parent Node Connection,BREAK_ROOM_3_Z42_COOLC-HEATCNODE,COIL:COOLING:DX:SINGLESPEED,BREAK_ROOM_3_Z42_COOLINGCOILDX,Outlet,1
 Non-Parent Node Connection,MECHANICAL_3_Z43_SUPPLYINLET,COIL:COOLING:DX:SINGLESPEED,MECHANICAL_3_Z43_COOLINGCOILDX,Inlet,1
 Non-Parent Node Connection,MECHANICAL_3_Z43_COOLC-HEATCNODE,COIL:COOLING:DX:SINGLESPEED,MECHANICAL_3_Z43_COOLINGCOILDX,Outlet,1
 Non-Parent Node Connection,OFFICE_OPEN_3_0_0_Z44_SUPPLYINLET,COIL:COOLING:DX:SINGLESPEED,OFFICE_OPEN_3_0_0_Z44_COOLINGCOILDX,Inlet,1
 Non-Parent Node Connection,OFFICE_OPEN_3_0_0_Z44_COOLC-HEATCNODE,COIL:COOLING:DX:SINGLESPEED,OFFICE_OPEN_3_0_0_Z44_COOLINGCOILDX,Outlet,1
 Non-Parent Node Connection,OFFICE_PRIVATE_3_0_1_Z45_SUPPLYINLET,COIL:COOLING:DX:SINGLESPEED,OFFICE_PRIVATE_3_0_1_Z45_COOLINGCOILDX,Inlet,1
 Non-Parent Node Connection,OFFICE_PRIVATE_3_0_1_Z45_COOLC-HEATCNODE,COIL:COOLING:DX:SINGLESPEED,OFFICE_PRIVATE_3_0_1_Z45_COOLINGCOILDX,Outlet,1
 Non-Parent Node Connection,STORAGE_3_0_2_Z46_SUPPLYINLET,COIL:COOLING:DX:SINGLESPEED,STORAGE_3_0_2_Z46_COOLINGCOILDX,Inlet,1
 Non-Parent Node Connection,STORAGE_3_0_2_Z46_COOLC-HEATCNODE,COIL:COOLING:DX:SINGLESPEED,STORAGE_3_0_2_Z46_COOLINGCOILDX,Outlet,1
 Non-Parent Node Connection,OFFICE_OPEN_3_1_0_Z47_SUPPLYINLET,COIL:COOLING:DX:SINGLESPEED,OFFICE_OPEN_3_1_0_Z47_COOLINGCOILDX,Inlet,1
 Non-Parent Node Connection,OFFICE_OPEN_3_1_0_Z47_COOLC-HEATCNODE,COIL:COOLING:DX:SINGLESPEED,OFFICE_OPEN_3_1_0_Z47_COOLINGCOILDX,Outlet,1
 Non-Parent Node Connection,OFFICE_PRIVATE_3_1_1_Z48_SUPPLYINLET,COIL:COOLING:DX:SINGLESPEED,OFFICE_PRIVATE_3_1_1_Z48_COOLINGCOILDX,Inlet,1
 Non-Parent Node Connection,OFFICE_PRIVATE_3_1_1_Z48_COOLC-HEATCNODE,COIL:COOLING:DX:SINGLESPEED,OFFICE_PRIVATE_3_1_1_Z48_COOLINGCOILDX,Outlet,1
 Non-Parent Node Connection,STORAGE_3_1_2_Z49_SUPPLYINLET,COIL:COOLING:DX:SINGLESPEED,STORAGE_3_1_2_Z49_COOLINGCOILDX,Inlet,1
 Non-Parent Node Connection,STORAGE_3_1_2_Z49_COOLC-HEATCNODE,COIL:COOLING:DX:SINGLESPEED,STORAGE_3_1_2_Z49_COOLINGCOILDX,Outlet,1
 Non-Parent Node Connection,OFFICE_OPEN_3_2_0_Z50_SUPPLYINLET,COIL:COOLING:DX:SINGLESPEED,OFFICE_OPEN_3_2_0_Z50_COOLINGCOILDX,Inlet,1
 Non-Parent Node Connection,OFFICE_OPEN_3_2_0_Z50_COOLC-HEATCNODE,COIL:COOLING:DX:SINGLESPEED,OFFICE_OPEN_3_2_0_Z50_COOLINGCOILDX,Outlet,1
 Non-Parent Node Connection,OFFICE_PRIVATE_3_2_1_Z51_SUPPLYINLET,COIL:COOLING:DX:SINGLESPEED,OFFICE_PRIVATE_3_2_1_Z51_COOLINGCOILDX,Inlet,1
 Non-Parent Node Connection,OFFICE_PRIVATE_3_2_1_Z51_COOLC-HEATCNODE,COIL:COOLING:DX:SINGLESPEED,OFFICE_PRIVATE_3_2_1_Z51_COOLINGCOILDX,Outlet,1
 Non-Parent Node Connection,STORAGE_3_2_2_Z52_SUPPLYINLET,COIL:COOLING:DX:SINGLESPEED,STORAGE_3_2_2_Z52_COOLINGCOILDX,Inlet,1
 Non-Parent Node Connection,STORAGE_3_2_2_Z52_COOLC-HEATCNODE,COIL:COOLING:DX:SINGLESPEED,STORAGE_3_2_2_Z52_COOLINGCOILDX,Outlet,1
 Non-Parent Node Connection,LOBBY_4_Z53_SUPPLYINLET,COIL:COOLING:DX:SINGLESPEED,LOBBY_4_Z53_COOLINGCOILDX,Inlet,1
 Non-Parent Node Connection,LOBBY_4_Z53_COOLC-HEATCNODE,COIL:COOLING:DX:SINGLESPEED,LOBBY_4_Z53_COOLINGCOILDX,Outlet,1
 Non-Parent Node Connection,CONFERENCE_4_Z54_SUPPLYINLET,COIL:COOLING:DX:SINGLESPEED,CONFERENCE_4_Z54_COOLINGCOILDX,Inlet,1
 Non-Parent Node Connection,CONFERENCE_4_Z54_COOLC-HEATCNODE,COIL:COOLING:DX:SINGLESPEED,CONFERENCE_4_Z54_COOLINGCOILDX,Outlet,1
 Non-Parent Node Connection,BREAK_ROOM_4_Z55_SUPPLYINLET,COIL:COOLING:DX:SINGLESPEED,BREAK_ROOM_4_Z55_COOLINGCOILDX,Inlet,1
 Non-Parent Node Connection,BREAK_ROOM_4_Z55_COOLC-HEATCNODE,COIL:COOLING:DX:SINGLESPEED,BREAK_ROOM_4_Z55_COOLINGCOILDX,Outlet,1
 Non-Parent Node Connection,MECHANICAL_4_Z56_SUPPLYINLET,COIL:COOLING:DX:SINGLESPEED,MECHANICAL_4_Z56_COOLINGCOILDX,Inlet,1
 Non-Parent Node Connection,MECHANICAL_4_Z56_COOLC-HEATCNODE,COIL:COOLING:DX:SINGLESPEED,MECHANICAL_4_Z56_COOLINGCOILDX,Outlet,1
 Non-Parent Node Connection,OFFICE_OPEN_4_0_0_Z57_SUPPLYINLET,COIL:COOLING:DX:SINGLESPEED,OFFICE_OPEN_4_0_0_Z57_COOLINGCOILDX,Inlet,1
 Non-Parent Node Connection,OFFICE_OPEN_4_0_0_Z57_COOLC-HEATCNODE,COIL:COOLING:DX:SINGLESPEED,OFFICE_OPEN_4_0_0_Z57_COOLINGCOILDX,Outlet,1
 Non-Parent Node Connection,OFFICE_PRIVATE_4_0_1_Z58_SUPPLYINLET,COIL:COOLING:DX:SINGLESPEED,OFFICE_PRIVATE_4_0_1_Z58_COOLINGCOILDX,Inlet,1
 Non-Parent Node Connection,OFFICE_PRIVATE_4_0_1_Z58_COOLC-HEATCNODE,COIL:COOLING:DX:SINGLESPEED,OFFICE_PRIVATE_4_0_1_Z58_COOLINGCOILDX,Outlet,1
 Non-Parent Node Connection,STORAGE_4_0_2_Z59_SUPPLYINLET,COIL:COOLING:DX:SINGLESPEED,STORAGE_4_0_2_Z59_COOLINGCOILDX,Inlet,1
 Non-Parent Node Connection,STORAGE_4_0_2_Z59_COOLC-HEATCNODE,COIL:COOLING:DX:SINGLESPEED,STORAGE_4_0_2_Z59_COOLINGCOILDX,Outlet,1
 Non-Parent Node Connection,OFFICE_OPEN_4_1_0_Z60_SUPPLYINLET,COIL:COOLING:DX:SINGLESPEED,OFFICE_OPEN_4_1_0_Z60_COOLINGCOILDX,Inlet,1
 Non-Parent Node Connection,OFFICE_OPEN_4_1_0_Z60_COOLC-HEATCNODE,COIL:COOLING:DX:SINGLESPEED,OFFICE_OPEN_4_1_0_Z60_COOLINGCOILDX,Outlet,1
 Non-Parent Node Connection,OFFICE_PRIVATE_4_1_1_Z61_SUPPLYINLET,COIL:COOLING:DX:SINGLESPEED,OFFICE_PRIVATE_4_1_1_Z61_COOLINGCOILDX,Inlet,1
 Non-Parent Node Connection,OFFICE_PRIVATE_4_1_1_Z61_COOLC-HEATCNODE,COIL:COOLING:DX:SINGLESPEED,OFFICE_PRIVATE_4_1_1_Z61_COOLINGCOILDX,Outlet,1
 Non-Parent Node Connection,STORAGE_4_1_2_Z62_SUPPLYINLET,COIL:COOLING:DX:SINGLESPEED,STORAGE_4_1_2_Z62_COOLINGCOILDX,Inlet,1
 Non-Parent Node Connection,STORAGE_4_1_2_Z62_COOLC-HEATCNODE,COIL:COOLING:DX:SINGLESPEED,STORAGE_4_1_2_Z62_COOLINGCOILDX,Outlet,1
 Non-Parent Node Connection,OFFICE_OPEN_4_2_0_Z63_SUPPLYINLET,COIL:COOLING:DX:SINGLESPEED,OFFICE_OPEN_4_2_0_Z63_COOLINGCOILDX,Inlet,1
 Non-Parent Node Connection,OFFICE_OPEN_4_2_0_Z63_COOLC-HEATCNODE,COIL:COOLING:DX:SINGLESPEED,OFFICE_OPEN_4_2_0_Z63_COOLINGCOILDX,Outlet,1
 Non-Parent Node Connection,OFFICE_PRIVATE_4_2_1_Z64_SUPPLYINLET,COIL:COOLING:DX:SINGLESPEED,OFFICE_PRIVATE_4_2_1_Z64_COOLINGCOILDX,Inlet,1
 Non-Parent Node Connection,OFFICE_PRIVATE_4_2_1_Z64_COOLC-HEATCNODE,COIL:COOLING:DX:SINGLESPEED,OFFICE_PRIVATE_4_2_1_Z64_COOLINGCOILDX,Outlet,1
 Non-Parent Node Connection,STORAGE_4_2_2_Z65_SUPPLYINLET,COIL:COOLING:DX:SINGLESPEED,STORAGE_4_2_2_Z65_COOLINGCOILDX,Inlet,1
 Non-Parent Node Connection,STORAGE_4_2_2_Z65_COOLC-HEATCNODE,COIL:COOLING:DX:SINGLESPEED,STORAGE_4_2_2_Z65_COOLINGCOILDX,Outlet,1
 Non-Parent Node Connection,LOBBY_5_Z66_SUPPLYINLET,COIL:COOLING:DX:SINGLESPEED,LOBBY_5_Z66_COOLINGCOILDX,Inlet,1
 Non-Parent Node Connection,LOBBY_5_Z66_COOLC-HEATCNODE,COIL:COOLING:DX:SINGLESPEED,LOBBY_5_Z66_COOLINGCOILDX,Outlet,1
 Non-Parent Node Connection,CONFERENCE_5_Z67_SUPPLYINLET,COIL:COOLING:DX:SINGLESPEED,CONFERENCE_5_Z67_COOLINGCOILDX,Inlet,1
 Non-Parent Node Connection,CONFERENCE_5_Z67_COOLC-HEATCNODE,COIL:COOLING:DX:SINGLESPEED,CONFERENCE_5_Z67_COOLINGCOILDX,Outlet,1
 Non-Parent Node Connection,BREAK_ROOM_5_Z68_SUPPLYINLET,COIL:COOLING:DX:SINGLESPEED,BREAK_ROOM_5_Z68_COOLINGCOILDX,Inlet,1
 Non-Parent Node Connection,BREAK_ROOM_5_Z68_COOLC-HEATCNODE,COIL:COOLING:DX:SINGLESPEED,BREAK_ROOM_5_Z68_COOLINGCOILDX,Outlet,1
 Non-Parent Node Connection,MECHANICAL_5_Z69_SUPPLYINLET,COIL:COOLING:DX:SINGLESPEED,MECHANICAL_5_Z69_COOLINGCOILDX,Inlet,1
 Non-Parent Node Connection,MECHANICAL_5_Z69_COOLC-HEATCNODE,COIL:COOLING:DX:SINGLESPEED,MECHANICAL_5_Z69_COOLINGCOILDX,Outlet,1
 Non-Parent Node Connection,OFFICE_OPEN_5_0_0_Z70_SUPPLYINLET,COIL:COOLING:DX:SINGLESPEED,OFFICE_OPEN_5_0_0_Z70_COOLINGCOILDX,Inlet,1
 Non-Parent Node Connection,OFFICE_OPEN_5_0_0_Z70_COOLC-HEATCNODE,COIL:COOLING:DX:SINGLESPEED,OFFICE_OPEN_5_0_0_Z70_COOLINGCOILDX,Outlet,1
 Non-Parent Node Connection,OFFICE_PRIVATE_5_0_1_Z71_SUPPLYINLET,COIL:COOLING:DX:SINGLESPEED,OFFICE_PRIVATE_5_0_1_Z71_COOLINGCOILDX,Inlet,1
 Non-Parent Node Connection,OFFICE_PRIVATE_5_0_1_Z71_COOLC-HEATCNODE,COIL:COOLING:DX:SINGLESPEED,OFFICE_PRIVATE_5_0_1_Z71_COOLINGCOILDX,Outlet,1
 Non-Parent Node Connection,STORAGE_5_0_2_Z72_SUPPLYINLET,COIL:COOLING:DX:SINGLESPEED,STORAGE_5_0_2_Z72_COOLINGCOILDX,Inlet,1
 Non-Parent Node Connection,STORAGE_5_0_2_Z72_COOLC-HEATCNODE,COIL:COOLING:DX:SINGLESPEED,STORAGE_5_0_2_Z72_COOLINGCOILDX,Outlet,1
 Non-Parent Node Connection,OFFICE_OPEN_5_1_0_Z73_SUPPLYINLET,COIL:COOLING:DX:SINGLESPEED,OFFICE_OPEN_5_1_0_Z73_COOLINGCOILDX,Inlet,1
 Non-Parent Node Connection,OFFICE_OPEN_5_1_0_Z73_COOLC-HEATCNODE,COIL:COOLING:DX:SINGLESPEED,OFFICE_OPEN_5_1_0_Z73_COOLINGCOILDX,Outlet,1
 Non-Parent Node Connection,OFFICE_PRIVATE_5_1_1_Z74_SUPPLYINLET,COIL:COOLING:DX:SINGLESPEED,OFFICE_PRIVATE_5_1_1_Z74_COOLINGCOILDX,Inlet,1
 Non-Parent Node Connection,OFFICE_PRIVATE_5_1_1_Z74_COOLC-HEATCNODE,COIL:COOLING:DX:SINGLESPEED,OFFICE_PRIVATE_5_1_1_Z74_COOLINGCOILDX,Outlet,1
 Non-Parent Node Connection,STORAGE_5_1_2_Z75_SUPPLYINLET,COIL:COOLING:DX:SINGLESPEED,STORAGE_5_1_2_Z75_COOLINGCOILDX,Inlet,1
 Non-Parent Node Connection,STORAGE_5_1_2_Z75_COOLC-HEATCNODE,COIL:COOLING:DX:SINGLESPEED,STORAGE_5_1_2_Z75_COOLINGCOILDX,Outlet,1
 Non-Parent Node Connection,OFFICE_OPEN_5_2_0_Z76_SUPPLYINLET,COIL:COOLING:DX:SINGLESPEED,OFFICE_OPEN_5_2_0_Z76_COOLINGCOILDX,Inlet,1
 Non-Parent Node Connection,OFFICE_OPEN_5_2_0_Z76_COOLC-HEATCNODE,COIL:COOLING:DX:SINGLESPEED,OFFICE_OPEN_5_2_0_Z76_COOLINGCOILDX,Outlet,1
 Non-Parent Node Connection,OFFICE_PRIVATE_5_2_1_Z77_SUPPLYINLET,COIL:COOLING:DX:SINGLESPEED,OFFICE_PRIVATE_5_2_1_Z77_COOLINGCOILDX,Inlet,1
 Non-Parent Node Connection,OFFICE_PRIVATE_5_2_1_Z77_COOLC-HEATCNODE,COIL:COOLING:DX:SINGLESPEED,OFFICE_PRIVATE_5_2_1_Z77_COOLINGCOILDX,Outlet,1
 Non-Parent Node Connection,STORAGE_5_2_2_Z78_SUPPLYINLET,COIL:COOLING:DX:SINGLESPEED,STORAGE_5_2_2_Z78_COOLINGCOILDX,Inlet,1
 Non-Parent Node Connection,STORAGE_5_2_2_Z78_COOLC-HEATCNODE,COIL:COOLING:DX:SINGLESPEED,STORAGE_5_2_2_Z78_COOLINGCOILDX,Outlet,1
 Non-Parent Node Connection,LOBBY_6_Z79_SUPPLYINLET,COIL:COOLING:DX:SINGLESPEED,LOBBY_6_Z79_COOLINGCOILDX,Inlet,1
 Non-Parent Node Connection,LOBBY_6_Z79_COOLC-HEATCNODE,COIL:COOLING:DX:SINGLESPEED,LOBBY_6_Z79_COOLINGCOILDX,Outlet,1
 Non-Parent Node Connection,CONFERENCE_6_Z80_SUPPLYINLET,COIL:COOLING:DX:SINGLESPEED,CONFERENCE_6_Z80_COOLINGCOILDX,Inlet,1
 Non-Parent Node Connection,CONFERENCE_6_Z80_COOLC-HEATCNODE,COIL:COOLING:DX:SINGLESPEED,CONFERENCE_6_Z80_COOLINGCOILDX,Outlet,1
 Non-Parent Node Connection,BREAK_ROOM_6_Z81_SUPPLYINLET,COIL:COOLING:DX:SINGLESPEED,BREAK_ROOM_6_Z81_COOLINGCOILDX,Inlet,1
 Non-Parent Node Connection,BREAK_ROOM_6_Z81_COOLC-HEATCNODE,COIL:COOLING:DX:SINGLESPEED,BREAK_ROOM_6_Z81_COOLINGCOILDX,Outlet,1
 Non-Parent Node Connection,MECHANICAL_6_Z82_SUPPLYINLET,COIL:COOLING:DX:SINGLESPEED,MECHANICAL_6_Z82_COOLINGCOILDX,Inlet,1
 Non-Parent Node Connection,MECHANICAL_6_Z82_COOLC-HEATCNODE,COIL:COOLING:DX:SINGLESPEED,MECHANICAL_6_Z82_COOLINGCOILDX,Outlet,1
 Non-Parent Node Connection,OFFICE_OPEN_6_0_0_Z83_SUPPLYINLET,COIL:COOLING:DX:SINGLESPEED,OFFICE_OPEN_6_0_0_Z83_COOLINGCOILDX,Inlet,1
 Non-Parent Node Connection,OFFICE_OPEN_6_0_0_Z83_COOLC-HEATCNODE,COIL:COOLING:DX:SINGLESPEED,OFFICE_OPEN_6_0_0_Z83_COOLINGCOILDX,Outlet,1
 Non-Parent Node Connection,OFFICE_PRIVATE_6_0_1_Z84_SUPPLYINLET,COIL:COOLING:DX:SINGLESPEED,OFFICE_PRIVATE_6_0_1_Z84_COOLINGCOILDX,Inlet,1
 Non-Parent Node Connection,OFFICE_PRIVATE_6_0_1_Z84_COOLC-HEATCNODE,COIL:COOLING:DX:SINGLESPEED,OFFICE_PRIVATE_6_0_1_Z84_COOLINGCOILDX,Outlet,1
 Non-Parent Node Connection,STORAGE_6_0_2_Z85_SUPPLYINLET,COIL:COOLING:DX:SINGLESPEED,STORAGE_6_0_2_Z85_COOLINGCOILDX,Inlet,1
 Non-Parent Node Connection,STORAGE_6_0_2_Z85_COOLC-HEATCNODE,COIL:COOLING:DX:SINGLESPEED,STORAGE_6_0_2_Z85_COOLINGCOILDX,Outlet,1
 Non-Parent Node Connection,OFFICE_OPEN_6_1_0_Z86_SUPPLYINLET,COIL:COOLING:DX:SINGLESPEED,OFFICE_OPEN_6_1_0_Z86_COOLINGCOILDX,Inlet,1
 Non-Parent Node Connection,OFFICE_OPEN_6_1_0_Z86_COOLC-HEATCNODE,COIL:COOLING:DX:SINGLESPEED,OFFICE_OPEN_6_1_0_Z86_COOLINGCOILDX,Outlet,1
 Non-Parent Node Connection,OFFICE_PRIVATE_6_1_1_Z87_SUPPLYINLET,COIL:COOLING:DX:SINGLESPEED,OFFICE_PRIVATE_6_1_1_Z87_COOLINGCOILDX,Inlet,1
 Non-Parent Node Connection,OFFICE_PRIVATE_6_1_1_Z87_COOLC-HEATCNODE,COIL:COOLING:DX:SINGLESPEED,OFFICE_PRIVATE_6_1_1_Z87_COOLINGCOILDX,Outlet,1
 Non-Parent Node Connection,STORAGE_6_1_2_Z88_SUPPLYINLET,COIL:COOLING:DX:SINGLESPEED,STORAGE_6_1_2_Z88_COOLINGCOILDX,Inlet,1
 Non-Parent Node Connection,STORAGE_6_1_2_Z88_COOLC-HEATCNODE,COIL:COOLING:DX:SINGLESPEED,STORAGE_6_1_2_Z88_COOLINGCOILDX,Outlet,1
 Non-Parent Node Connection,OFFICE_OPEN_6_2_0_Z89_SUPPLYINLET,COIL:COOLING:DX:SINGLESPEED,OFFICE_OPEN_6_2_0_Z89_COOLINGCOILDX,Inlet,1
 Non-Parent Node Connection,OFFICE_OPEN_6_2_0_Z89_COOLC-HEATCNODE,COIL:COOLING:DX:SINGLESPEED,OFFICE_OPEN_6_2_0_Z89_COOLINGCOILDX,Outlet,1
 Non-Parent Node Connection,OFFICE_PRIVATE_6_2_1_Z90_SUPPLYINLET,COIL:COOLING:DX:SINGLESPEED,OFFICE_PRIVATE_6_2_1_Z90_COOLINGCOILDX,Inlet,1
 Non-Parent Node Connection,OFFICE_PRIVATE_6_2_1_Z90_COOLC-HEATCNODE,COIL:COOLING:DX:SINGLESPEED,OFFICE_PRIVATE_6_2_1_Z90_COOLINGCOILDX,Outlet,1
 Non-Parent Node Connection,STORAGE_6_2_2_Z91_SUPPLYINLET,COIL:COOLING:DX:SINGLESPEED,STORAGE_6_2_2_Z91_COOLINGCOILDX,Inlet,1
 Non-Parent Node Connection,STORAGE_6_2_2_Z91_COOLC-HEATCNODE,COIL:COOLING:DX:SINGLESPEED,STORAGE_6_2_2_Z91_COOLINGCOILDX,Outlet,1
 Non-Parent Node Connection,LOBBY_7_Z92_SUPPLYINLET,COIL:COOLING:DX:SINGLESPEED,LOBBY_7_Z92_COOLINGCOILDX,Inlet,1
 Non-Parent Node Connection,LOBBY_7_Z92_COOLC-HEATCNODE,COIL:COOLING:DX:SINGLESPEED,LOBBY_7_Z92_COOLINGCOILDX,Outlet,1
 Non-Parent Node Connection,CONFERENCE_7_Z93_SUPPLYINLET,COIL:COOLING:DX:SINGLESPEED,CONFERENCE_7_Z93_COOLINGCOILDX,Inlet,1
 Non-Parent Node Connection,CONFERENCE_7_Z93_COOLC-HEATCNODE,COIL:COOLING:DX:SINGLESPEED,CONFERENCE_7_Z93_COOLINGCOILDX,Outlet,1
 Non-Parent Node Connection,BREAK_ROOM_7_Z94_SUPPLYINLET,COIL:COOLING:DX:SINGLESPEED,BREAK_ROOM_7_Z94_COOLINGCOILDX,Inlet,1
 Non-Parent Node Connection,BREAK_ROOM_7_Z94_COOLC-HEATCNODE,COIL:COOLING:DX:SINGLESPEED,BREAK_ROOM_7_Z94_COOLINGCOILDX,Outlet,1
 Non-Parent Node Connection,MECHANICAL_7_Z95_SUPPLYINLET,COIL:COOLING:DX:SINGLESPEED,MECHANICAL_7_Z95_COOLINGCOILDX,Inlet,1
 Non-Parent Node Connection,MECHANICAL_7_Z95_COOLC-HEATCNODE,COIL:COOLING:DX:SINGLESPEED,MECHANICAL_7_Z95_COOLINGCOILDX,Outlet,1
 Non-Parent Node Connection,OFFICE_OPEN_7_0_0_Z96_SUPPLYINLET,COIL:COOLING:DX:SINGLESPEED,OFFICE_OPEN_7_0_0_Z96_COOLINGCOILDX,Inlet,1
 Non-Parent Node Connection,OFFICE_OPEN_7_0_0_Z96_COOLC-HEATCNODE,COIL:COOLING:DX:SINGLESPEED,OFFICE_OPEN_7_0_0_Z96_COOLINGCOILDX,Outlet,1
 Non-Parent Node Connection,OFFICE_PRIVATE_7_0_1_Z97_SUPPLYINLET,COIL:COOLING:DX:SINGLESPEED,OFFICE_PRIVATE_7_0_1_Z97_COOLINGCOILDX,Inlet,1
 Non-Parent Node Connection,OFFICE_PRIVATE_7_0_1_Z97_COOLC-HEATCNODE,COIL:COOLING:DX:SINGLESPEED,OFFICE_PRIVATE_7_0_1_Z97_COOLINGCOILDX,Outlet,1
 Non-Parent Node Connection,STORAGE_7_0_2_Z98_SUPPLYINLET,COIL:COOLING:DX:SINGLESPEED,STORAGE_7_0_2_Z98_COOLINGCOILDX,Inlet,1
 Non-Parent Node Connection,STORAGE_7_0_2_Z98_COOLC-HEATCNODE,COIL:COOLING:DX:SINGLESPEED,STORAGE_7_0_2_Z98_COOLINGCOILDX,Outlet,1
 Non-Parent Node Connection,OFFICE_OPEN_7_1_0_Z99_SUPPLYINLET,COIL:COOLING:DX:SINGLESPEED,OFFICE_OPEN_7_1_0_Z99_COOLINGCOILDX,Inlet,1
 Non-Parent Node Connection,OFFICE_OPEN_7_1_0_Z99_COOLC-HEATCNODE,COIL:COOLING:DX:SINGLESPEED,OFFICE_OPEN_7_1_0_Z99_COOLINGCOILDX,Outlet,1
 Non-Parent Node Connection,OFFICE_PRIVATE_7_1_1_Z100_SUPPLYINLET,COIL:COOLING:DX:SINGLESPEED,OFFICE_PRIVATE_7_1_1_Z100_COOLINGCOILDX,Inlet,1
 Non-Parent Node Connection,OFFICE_PRIVATE_7_1_1_Z100_COOLC-HEATCNODE,COIL:COOLING:DX:SINGLESPEED,OFFICE_PRIVATE_7_1_1_Z100_COOLINGCOILDX,Outlet,1
 Non-Parent Node Connection,STORAGE_7_1_2_Z101_SUPPLYINLET,COIL:COOLING:DX:SINGLESPEED,STORAGE_7_1_2_Z101_COOLINGCOILDX,Inlet,1
 Non-Parent Node Connection,STORAGE_7_1_2_Z101_COOLC-HEATCNODE,COIL:COOLING:DX:SINGLESPEED,STORAGE_7_1_2_Z101_COOLINGCOILDX,Outlet,1
 Non-Parent Node Connection,OFFICE_OPEN_7_2_0_Z102_SUPPLYINLET,COIL:COOLING:DX:SINGLESPEED,OFFICE_OPEN_7_2_0_Z102_COOLINGCOILDX,Inlet,1
 Non-Parent Node Connection,OFFICE_OPEN_7_2_0_Z102_COOLC-HEATCNODE,COIL:COOLING:DX:SINGLESPEED,OFFICE_OPEN_7_2_0_Z102_COOLINGCOILDX,Outlet,1
 Non-Parent Node Connection,OFFICE_PRIVATE_7_2_1_Z103_SUPPLYINLET,COIL:COOLING:DX:SINGLESPEED,OFFICE_PRIVATE_7_2_1_Z103_COOLINGCOILDX,Inlet,1
 Non-Parent Node Connection,OFFICE_PRIVATE_7_2_1_Z103_COOLC-HEATCNODE,COIL:COOLING:DX:SINGLESPEED,OFFICE_PRIVATE_7_2_1_Z103_COOLINGCOILDX,Outlet,1
 Non-Parent Node Connection,STORAGE_7_2_2_Z104_SUPPLYINLET,COIL:COOLING:DX:SINGLESPEED,STORAGE_7_2_2_Z104_COOLINGCOILDX,Inlet,1
 Non-Parent Node Connection,STORAGE_7_2_2_Z104_COOLC-HEATCNODE,COIL:COOLING:DX:SINGLESPEED,STORAGE_7_2_2_Z104_COOLINGCOILDX,Outlet,1
 Non-Parent Node Connection,LOBBY_8_Z105_SUPPLYINLET,COIL:COOLING:DX:SINGLESPEED,LOBBY_8_Z105_COOLINGCOILDX,Inlet,1
 Non-Parent Node Connection,LOBBY_8_Z105_COOLC-HEATCNODE,COIL:COOLING:DX:SINGLESPEED,LOBBY_8_Z105_COOLINGCOILDX,Outlet,1
 Non-Parent Node Connection,CONFERENCE_8_Z106_SUPPLYINLET,COIL:COOLING:DX:SINGLESPEED,CONFERENCE_8_Z106_COOLINGCOILDX,Inlet,1
 Non-Parent Node Connection,CONFERENCE_8_Z106_COOLC-HEATCNODE,COIL:COOLING:DX:SINGLESPEED,CONFERENCE_8_Z106_COOLINGCOILDX,Outlet,1
 Non-Parent Node Connection,BREAK_ROOM_8_Z107_SUPPLYINLET,COIL:COOLING:DX:SINGLESPEED,BREAK_ROOM_8_Z107_COOLINGCOILDX,Inlet,1
 Non-Parent Node Connection,BREAK_ROOM_8_Z107_COOLC-HEATCNODE,COIL:COOLING:DX:SINGLESPEED,BREAK_ROOM_8_Z107_COOLINGCOILDX,Outlet,1
 Non-Parent Node Connection,MECHANICAL_8_Z108_SUPPLYINLET,COIL:COOLING:DX:SINGLESPEED,MECHANICAL_8_Z108_COOLINGCOILDX,Inlet,1
 Non-Parent Node Connection,MECHANICAL_8_Z108_COOLC-HEATCNODE,COIL:COOLING:DX:SINGLESPEED,MECHANICAL_8_Z108_COOLINGCOILDX,Outlet,1
 Non-Parent Node Connection,OFFICE_OPEN_8_0_0_Z109_SUPPLYINLET,COIL:COOLING:DX:SINGLESPEED,OFFICE_OPEN_8_0_0_Z109_COOLINGCOILDX,Inlet,1
 Non-Parent Node Connection,OFFICE_OPEN_8_0_0_Z109_COOLC-HEATCNODE,COIL:COOLING:DX:SINGLESPEED,OFFICE_OPEN_8_0_0_Z109_COOLINGCOILDX,Outlet,1
 Non-Parent Node Connection,OFFICE_PRIVATE_8_0_1_Z110_SUPPLYINLET,COIL:COOLING:DX:SINGLESPEED,OFFICE_PRIVATE_8_0_1_Z110_COOLINGCOILDX,Inlet,1
 Non-Parent Node Connection,OFFICE_PRIVATE_8_0_1_Z110_COOLC-HEATCNODE,COIL:COOLING:DX:SINGLESPEED,OFFICE_PRIVATE_8_0_1_Z110_COOLINGCOILDX,Outlet,1
 Non-Parent Node Connection,STORAGE_8_0_2_Z111_SUPPLYINLET,COIL:COOLING:DX:SINGLESPEED,STORAGE_8_0_2_Z111_COOLINGCOILDX,Inlet,1
 Non-Parent Node Connection,STORAGE_8_0_2_Z111_COOLC-HEATCNODE,COIL:COOLING:DX:SINGLESPEED,STORAGE_8_0_2_Z111_COOLINGCOILDX,Outlet,1
 Non-Parent Node Connection,OFFICE_OPEN_8_1_0_Z112_SUPPLYINLET,COIL:COOLING:DX:SINGLESPEED,OFFICE_OPEN_8_1_0_Z112_COOLINGCOILDX,Inlet,1
 Non-Parent Node Connection,OFFICE_OPEN_8_1_0_Z112_COOLC-HEATCNODE,COIL:COOLING:DX:SINGLESPEED,OFFICE_OPEN_8_1_0_Z112_COOLINGCOILDX,Outlet,1
 Non-Parent Node Connection,OFFICE_PRIVATE_8_1_1_Z113_SUPPLYINLET,COIL:COOLING:DX:SINGLESPEED,OFFICE_PRIVATE_8_1_1_Z113_COOLINGCOILDX,Inlet,1
 Non-Parent Node Connection,OFFICE_PRIVATE_8_1_1_Z113_COOLC-HEATCNODE,COIL:COOLING:DX:SINGLESPEED,OFFICE_PRIVATE_8_1_1_Z113_COOLINGCOILDX,Outlet,1
 Non-Parent Node Connection,STORAGE_8_1_2_Z114_SUPPLYINLET,COIL:COOLING:DX:SINGLESPEED,STORAGE_8_1_2_Z114_COOLINGCOILDX,Inlet,1
 Non-Parent Node Connection,STORAGE_8_1_2_Z114_COOLC-HEATCNODE,COIL:COOLING:DX:SINGLESPEED,STORAGE_8_1_2_Z114_COOLINGCOILDX,Outlet,1
 Non-Parent Node Connection,OFFICE_OPEN_8_2_0_Z115_SUPPLYINLET,COIL:COOLING:DX:SINGLESPEED,OFFICE_OPEN_8_2_0_Z115_COOLINGCOILDX,Inlet,1
 Non-Parent Node Connection,OFFICE_OPEN_8_2_0_Z115_COOLC-HEATCNODE,COIL:COOLING:DX:SINGLESPEED,O