Program Version,EnergyPlus, Version 24.2.0-94a887817b, YMD=2025.11.02 18:41,
Var Type (reported time step),Var Report Type,Variable Name [Units]
Zone,Meter,Electricity:Facility [J]
Zone,Meter,Electricity:Building [J]
Zone,Meter,Electricity:Zone:LOBBY_0 [J]
Zone,Meter,Electricity:SpaceType:GENERAL [J]
Zone,Meter,InteriorLights:Electricity [J]
Zone,Meter,InteriorLights:Electricity:Zone:LOBBY_0 [J]
Zone,Meter,InteriorLights:Electricity:SpaceType:GENERAL [J]
Zone,Meter,General:InteriorLights:Electricity [J]
Zone,Meter,General:InteriorLights:Electricity:Zone:LOBBY_0 [J]
Zone,Meter,General:InteriorLights:Electricity:SpaceType:GENERAL [J]
Zone,Meter,Electricity:Zone:MECHANICAL_0 [J]
Zone,Meter,InteriorLights:Electricity:Zone:MECHANICAL_0 [J]
Zone,Meter,General:InteriorLights:Electricity:Zone:MECHANICAL_0 [J]
Zone,Meter,Electricity:Zone:OFFICE_OPEN_0 [J]
Zone,Meter,InteriorLights:Electricity:Zone:OFFICE_OPEN_0 [J]
Zone,Meter,General:InteriorLights:Electricity:Zone:OFFICE_OPEN_0 [J]
Zone,Meter,Electricity:Zone:LOBBY_1 [J]
Zone,Meter,InteriorLights:Electricity:Zone:LOBBY_1 [J]
Zone,Meter,General:InteriorLights:Electricity:Zone:LOBBY_1 [J]
Zone,Meter,Electricity:Zone:CONFERENCE_1 [J]
Zone,Meter,InteriorLights:Electricity:Zone:CONFERENCE_1 [J]
Zone,Meter,General:InteriorLights:Electricity:Zone:CONFERENCE_1 [J]
Zone,Meter,Electricity:Zone:MECHANICAL_1 [J]
Zone,Meter,InteriorLights:Electricity:Zone:MECHANICAL_1 [J]
Zone,Meter,General:InteriorLights:Electricity:Zone:MECHANICAL_1 [J]
Zone,Meter,Electricity:Zone:LOBBY_2 [J]
Zone,Meter,InteriorLights:Electricity:Zone:LOBBY_2 [J]
Zone,Meter,General:InteriorLights:Electricity:Zone:LOBBY_2 [J]
Zone,Meter,Electricity:Zone:CONFERENCE_2 [J]
Zone,Meter,InteriorLights:Electricity:Zone:CONFERENCE_2 [J]
Zone,Meter,General:InteriorLights:Electricity:Zone:CONFERENCE_2 [J]
Zone,Meter,Electricity:Zone:BREAK_ROOM_2 [J]
Zone,Meter,InteriorLights:Electricity:Zone:BREAK_ROOM_2 [J]
Zone,Meter,General:InteriorLights:Electricity:Zone:BREAK_ROOM_2 [J]
Zone,Meter,Electricity:Zone:MECHANICAL_2 [J]
Zone,Meter,InteriorLights:Electricity:Zone:MECHANICAL_2 [J]
Zone,Meter,General:InteriorLights:Electricity:Zone:MECHANICAL_2 [J]
Zone,Meter,Electricity:Zone:OFFICE_OPEN_2 [J]
Zone,Meter,InteriorLights:Electricity:Zone:OFFICE_OPEN_2 [J]
Zone,Meter,General:InteriorLights:Electricity:Zone:OFFICE_OPEN_2 [J]
Zone,Meter,Electricity:Zone:OFFICE_PRIVATE_2 [J]
Zone,Meter,InteriorLights:Electricity:Zone:OFFICE_PRIVATE_2 [J]
Zone,Meter,General:InteriorLights:Electricity:Zone:OFFICE_PRIVATE_2 [J]
Zone,Meter,Electricity:Zone:LOBBY_3 [J]
Zone,Meter,InteriorLights:Electricity:Zone:LOBBY_3 [J]
Zone,Meter,General:InteriorLights:Electricity:Zone:LOBBY_3 [J]
Zone,Meter,Electricity:Zone:CONFERENCE_3 [J]
Zone,Meter,InteriorLights:Electricity:Zone:CONFERENCE_3 [J]
Zone,Meter,General:InteriorLights:Electricity:Zone:CONFERENCE_3 [J]
Zone,Meter,Electricity:Zone:OFFICE_PRIVATE_3 [J]
Zone,Meter,InteriorLights:Electricity:Zone:OFFICE_PRIVATE_3 [J]
Zone,Meter,General:InteriorLights:Electricity:Zone:OFFICE_PRIVATE_3 [J]
Zone,Meter,Electricity:Zone:STORAGE_3 [J]
Zone,Meter,InteriorLights:Electricity:Zone:STORAGE_3 [J]
Zone,Meter,General:InteriorLights:Electricity:Zone:STORAGE_3 [J]
Zone,Meter,Electricity:Zone:LOBBY_4 [J]
Zone,Meter,InteriorLights:Electricity:Zone:LOBBY_4 [J]
Zone,Meter,General:InteriorLights:Electricity:Zone:LOBBY_4 [J]
Zone,Meter,Electricity:Zone:CONFERENCE_4 [J]
Zone,Meter,InteriorLights:Electricity:Zone:CONFERENCE_4 [J]
Zone,Meter,General:InteriorLights:Electricity:Zone:CONFERENCE_4 [J]
Zone,Meter,Electricity:Zone:BREAK_ROOM_4 [J]
Zone,Meter,InteriorLights:Electricity:Zone:BREAK_ROOM_4 [J]
Zone,Meter,General:InteriorLights:Electricity:Zone:BREAK_ROOM_4 [J]
Zone,Meter,Electricity:Zone:MECHANICAL_4 [J]
Zone,Meter,InteriorLights:Electricity:Zone:MECHANICAL_4 [J]
Zone,Meter,General:InteriorLights:Electricity:Zone:MECHANICAL_4 [J]
Zone,Meter,Electricity:Zone:OFFICE_OPEN_4 [J]
Zone,Meter,InteriorLights:Electricity:Zone:OFFICE_OPEN_4 [J]
Zone,Meter,General:InteriorLights:Electricity:Zone:OFFICE_OPEN_4 [J]
Zone,Meter,Electricity:Zone:OFFICE_PRIVATE_4 [J]
Zone,Meter,InteriorLights:Electricity:Zone:OFFICE_PRIVATE_4 [J]
Zone,Meter,General:InteriorLights:Electricity:Zone:OFFICE_PRIVATE_4 [J]
Zone,Meter,Electricity:Zone:STORAGE_4 [J]
Zone,Meter,InteriorLights:Electricity:Zone:STORAGE_4 [J]
Zone,Meter,General:InteriorLights:Electricity:Zone:STORAGE_4 [J]
Zone,Meter,Electricity:Zone:LOBBY_5 [J]
Zone,Meter,InteriorLights:Electricity:Zone:LOBBY_5 [J]
Zone,Meter,General:InteriorLights:Electricity:Zone:LOBBY_5 [J]
Zone,Meter,Electricity:Zone:CONFERENCE_5 [J]
Zone,Meter,InteriorLights:Electricity:Zone:CONFERENCE_5 [J]
Zone,Meter,General:InteriorLights:Electricity:Zone:CONFERENCE_5 [J]
Zone,Meter,Electricity:Zone:BREAK_ROOM_5 [J]
Zone,Meter,InteriorLights:Electricity:Zone:BREAK_ROOM_5 [J]
Zone,Meter,General:InteriorLights:Electricity:Zone:BREAK_ROOM_5 [J]
Zone,Meter,Electricity:Zone:STORAGE_5 [J]
Zone,Meter,InteriorLights:Electricity:Zone:STORAGE_5 [J]
Zone,Meter,General:InteriorLights:Electricity:Zone:STORAGE_5 [J]
Zone,Meter,Electricity:Zone:LOBBY_6 [J]
Zone,Meter,InteriorLights:Electricity:Zone:LOBBY_6 [J]
Zone,Meter,General:InteriorLights:Electricity:Zone:LOBBY_6 [J]
Zone,Meter,Electricity:Zone:CONFERENCE_6 [J]
Zone,Meter,InteriorLights:Electricity:Zone:CONFERENCE_6 [J]
Zone,Meter,General:InteriorLights:Electricity:Zone:CONFERENCE_6 [J]
Zone,Meter,Electricity:Zone:BREAK_ROOM_6 [J]
Zone,Meter,InteriorLights:Electricity:Zone:BREAK_ROOM_6 [J]
Zone,Meter,General:InteriorLights:Electricity:Zone:BREAK_ROOM_6 [J]
Zone,Meter,Electricity:Zone:OFFICE_PRIVATE_6 [J]
Zone,Meter,InteriorLights:Electricity:Zone:OFFICE_PRIVATE_6 [J]
Zone,Meter,General:InteriorLights:Electricity:Zone:OFFICE_PRIVATE_6 [J]
Zone,Meter,Electricity:Zone:STORAGE_6 [J]
Zone,Meter,InteriorLights:Electricity:Zone:STORAGE_6 [J]
Zone,Meter,General:InteriorLights:Electricity:Zone:STORAGE_6 [J]
Zone,Meter,Electricity:Zone:LOBBY_7 [J]
Zone,Meter,InteriorLights:Electricity:Zone:LOBBY_7 [J]
Zone,Meter,General:InteriorLights:Electricity:Zone:LOBBY_7 [J]
Zone,Meter,Electricity:Zone:CONFERENCE_7 [J]
Zone,Meter,InteriorLights:Electricity:Zone:CONFERENCE_7 [J]
Zone,Meter,General:InteriorLights:Electricity:Zone:CONFERENCE_7 [J]
Zone,Meter,Electricity:Zone:MECHANICAL_7 [J]
Zone,Meter,InteriorLights:Electricity:Zone:MECHANICAL_7 [J]
Zone,Meter,General:InteriorLights:Electricity:Zone:MECHANICAL_7 [J]
Zone,Meter,Electricity:Zone:STORAGE_7 [J]
Zone,Meter,InteriorLights:Electricity:Zone:STORAGE_7 [J]
Zone,Meter,General:InteriorLights:Electricity:Zone:STORAGE_7 [J]
Zone,Meter,Electricity:Zone:BREAK_ROOM_8 [J]
Zone,Meter,InteriorLights:Electricity:Zone:BREAK_ROOM_8 [J]
Zone,Meter,General:InteriorLights:Electricity:Zone:BREAK_ROOM_8 [J]
Zone,Meter,Electricity:Zone:OFFICE_OPEN_8 [J]
Zone,Meter,InteriorLights:Electricity:Zone:OFFICE_OPEN_8 [J]
Zone,Meter,General:InteriorLights:Electricity:Zone:OFFICE_OPEN_8 [J]
Zone,Meter,Electricity:Zone:OFFICE_PRIVATE_8 [J]
Zone,Meter,InteriorLights:Electricity:Zone:OFFICE_PRIVATE_8 [J]
Zone,Meter,General:InteriorLights:Electricity:Zone:OFFICE_PRIVATE_8 [J]
Zone,Meter,Electricity:Zone:STORAGE_8 [J]
Zone,Meter,InteriorLights:Electricity:Zone:STORAGE_8 [J]
Zone,Meter,General:InteriorLights:Electricity:Zone:STORAGE_8 [J]
Zone,Meter,Electricity:Zone:STORAGE_9 [J]
Zone,Meter,InteriorLights:Electricity:Zone:STORAGE_9 [J]
Zone,Meter,General:InteriorLights:Electricity:Zone:STORAGE_9 [J]
Zone,Meter,Electricity:Zone:CONFERENCE_10 [J]
Zone,Meter,InteriorLights:Electricity:Zone:CONFERENCE_10 [J]
Zone,Meter,General:InteriorLights:Electricity:Zone:CONFERENCE_10 [J]
Zone,Meter,Electricity:Zone:OFFICE_PRIVATE_10 [J]
Zone,Meter,InteriorLights:Electricity:Zone:OFFICE_PRIVATE_10 [J]
Zone,Meter,General:InteriorLights:Electricity:Zone:OFFICE_PRIVATE_10 [J]
Zone,Meter,Electricity:Zone:STORAGE_10 [J]
Zone,Meter,InteriorLights:Electricity:Zone:STORAGE_10 [J]
Zone,Meter,General:InteriorLights:Electricity:Zone:STORAGE_10 [J]
Zone,Meter,Electricity:Zone:CONFERENCE_11 [J]
Zone,Meter,InteriorLights:Electricity:Zone:CONFERENCE_11 [J]
Zone,Meter,General:InteriorLights:Electricity:Zone:CONFERENCE_11 [J]
Zone,Meter,Electricity:Zone:BREAK_ROOM_11 [J]
Zone,Meter,InteriorLights:Electricity:Zone:BREAK_ROOM_11 [J]
Zone,Meter,General:InteriorLights:Electricity:Zone:BREAK_ROOM_11 [J]
Zone,Meter,Electricity:Zone:LOBBY_12 [J]
Zone,Meter,InteriorLights:Electricity:Zone:LOBBY_12 [J]
Zone,Meter,General:InteriorLights:Electricity:Zone:LOBBY_12 [J]
Zone,Meter,Electricity:Zone:CONFERENCE_12 [J]
Zone,Meter,InteriorLights:Electricity:Zone:CONFERENCE_12 [J]
Zone,Meter,General:InteriorLights:Electricity:Zone:CONFERENCE_12 [J]
Zone,Meter,Electricity:Zone:MECHANICAL_12 [J]
Zone,Meter,InteriorLights:Electricity:Zone:MECHANICAL_12 [J]
Zone,Meter,General:InteriorLights:Electricity:Zone:MECHANICAL_12 [J]
Zone,Meter,Electricity:Zone:STORAGE_12 [J]
Zone,Meter,InteriorLights:Electricity:Zone:STORAGE_12 [J]
Zone,Meter,General:InteriorLights:Electricity:Zone:STORAGE_12 [J]
Zone,Meter,Electricity:Zone:LOBBY_13 [J]
Zone,Meter,InteriorLights:Electricity:Zone:LOBBY_13 [J]
Zone,Meter,General:InteriorLights:Electricity:Zone:LOBBY_13 [J]
Zone,Meter,Electricity:Zone:CONFERENCE_13 [J]
Zone,Meter,InteriorLights:Electricity:Zone:CONFERENCE_13 [J]
Zone,Meter,General:InteriorLights:Electricity:Zone:CONFERENCE_13 [J]
Zone,Meter,Electricity:Zone:OFFICE_PRIVATE_13 [J]
Zone,Meter,InteriorLights:Electricity:Zone:OFFICE_PRIVATE_13 [J]
Zone,Meter,General:InteriorLights:Electricity:Zone:OFFICE_PRIVATE_13 [J]
Zone,Meter,Electricity:Zone:STORAGE_13 [J]
Zone,Meter,InteriorLights:Electricity:Zone:STORAGE_13 [J]
Zone,Meter,General:InteriorLights:Electricity:Zone:STORAGE_13 [J]
Zone,Meter,Electricity:Zone:CONFERENCE_14 [J]
Zone,Meter,InteriorLights:Electricity:Zone:CONFERENCE_14 [J]
Zone,Meter,General:InteriorLights:Electricity:Zone:CONFERENCE_14 [J]
Zone,Meter,Electricity:Zone:BREAK_ROOM_14 [J]
Zone,Meter,InteriorLights:Electricity:Zone:BREAK_ROOM_14 [J]
Zone,Meter,General:InteriorLights:Electricity:Zone:BREAK_ROOM_14 [J]
Zone,Meter,Electricity:Zone:MECHANICAL_14 [J]
Zone,Meter,InteriorLights:Electricity:Zone:MECHANICAL_14 [J]
Zone,Meter,General:InteriorLights:Electricity:Zone:MECHANICAL_14 [J]
Zone,Meter,Electricity:Zone:OFFICE_OPEN_14 [J]
Zone,Meter,InteriorLights:Electricity:Zone:OFFICE_OPEN_14 [J]
Zone,Meter,General:InteriorLights:Electricity:Zone:OFFICE_OPEN_14 [J]
Zone,Meter,Electricity:Zone:OFFICE_PRIVATE_14 [J]
Zone,Meter,InteriorLights:Electricity:Zone:OFFICE_PRIVATE_14 [J]
Zone,Meter,General:InteriorLights:Electricity:Zone:OFFICE_PRIVATE_14 [J]
Zone,Meter,Electricity:Zone:CONFERENCE_15 [J]
Zone,Meter,InteriorLights:Electricity:Zone:CONFERENCE_15 [J]
Zone,Meter,General:InteriorLights:Electricity:Zone:CONFERENCE_15 [J]
Zone,Meter,Electricity:Zone:OFFICE_PRIVATE_15 [J]
Zone,Meter,InteriorLights:Electricity:Zone:OFFICE_PRIVATE_15 [J]
Zone,Meter,General:InteriorLights:Electricity:Zone:OFFICE_PRIVATE_15 [J]
Zone,Meter,Electricity:Zone:CONFERENCE_16 [J]
Zone,Meter,InteriorLights:Electricity:Zone:CONFERENCE_16 [J]
Zone,Meter,General:InteriorLights:Electricity:Zone:CONFERENCE_16 [J]
Zone,Meter,Electricity:Zone:BREAK_ROOM_16 [J]
Zone,Meter,InteriorLights:Electricity:Zone:BREAK_ROOM_16 [J]
Zone,Meter,General:InteriorLights:Electricity:Zone:BREAK_ROOM_16 [J]
Zone,Meter,Electricity:Zone:OFFICE_PRIVATE_16 [J]
Zone,Meter,InteriorLights:Electricity:Zone:OFFICE_PRIVATE_16 [J]
Zone,Meter,General:InteriorLights:Electricity:Zone:OFFICE_PRIVATE_16 [J]
Zone,Meter,Electricity:Zone:CONFERENCE_17 [J]
Zone,Meter,InteriorLights:Electricity:Zone:CONFERENCE_17 [J]
Zone,Meter,General:InteriorLights:Electricity:Zone:CONFERENCE_17 [J]
Zone,Meter,Electricity:Zone:BREAK_ROOM_17 [J]
Zone,Meter,InteriorLights:Electricity:Zone:BREAK_ROOM_17 [J]
Zone,Meter,General:InteriorLights:Electricity:Zone:BREAK_ROOM_17 [J]
Zone,Meter,Electricity:Zone:MECHANICAL_17 [J]
Zone,Meter,InteriorLights:Electricity:Zone:MECHANICAL_17 [J]
Zone,Meter,General:InteriorLights:Electricity:Zone:MECHANICAL_17 [J]
Zone,Meter,Electricity:Zone:OFFICE_OPEN_17 [J]
Zone,Meter,InteriorLights:Electricity:Zone:OFFICE_OPEN_17 [J]
Zone,Meter,General:InteriorLights:Electricity:Zone:OFFICE_OPEN_17 [J]
Zone,Meter,Electricity:Zone:STORAGE_17 [J]
Zone,Meter,InteriorLights:Electricity:Zone:STORAGE_17 [J]
Zone,Meter,General:InteriorLights:Electricity:Zone:STORAGE_17 [J]
Zone,Meter,Electricity:Zone:BREAK_ROOM_18 [J]
Zone,Meter,InteriorLights:Electricity:Zone:BREAK_ROOM_18 [J]
Zone,Meter,General:InteriorLights:Electricity:Zone:BREAK_ROOM_18 [J]
Zone,Meter,Electricity:Zone:MECHANICAL_18 [J]
Zone,Meter,InteriorLights:Electricity:Zone:MECHANICAL_18 [J]
Zone,Meter,General:InteriorLights:Electricity:Zone:MECHANICAL_18 [J]
Zone,Meter,Electricity:Zone:OFFICE_PRIVATE_18 [J]
Zone,Meter,InteriorLights:Electricity:Zone:OFFICE_PRIVATE_18 [J]
Zone,Meter,General:InteriorLights:Electricity:Zone:OFFICE_PRIVATE_18 [J]
Zone,Meter,Electricity:Zone:CONFERENCE_19 [J]
Zone,Meter,InteriorLights:Electricity:Zone:CONFERENCE_19 [J]
Zone,Meter,General:InteriorLights:Electricity:Zone:CONFERENCE_19 [J]
Zone,Meter,Electricity:Zone:MECHANICAL_19 [J]
Zone,Meter,InteriorLights:Electricity:Zone:MECHANICAL_19 [J]
Zone,Meter,General:InteriorLights:Electricity:Zone:MECHANICAL_19 [J]
Zone,Meter,Electricity:Zone:OFFICE_PRIVATE_19 [J]
Zone,Meter,InteriorLights:Electricity:Zone:OFFICE_PRIVATE_19 [J]
Zone,Meter,General:InteriorLights:Electricity:Zone:OFFICE_PRIVATE_19 [J]
Zone,Meter,Electricity:Zone:LOBBY_20 [J]
Zone,Meter,InteriorLights:Electricity:Zone:LOBBY_20 [J]
Zone,Meter,General:InteriorLights:Electricity:Zone:LOBBY_20 [J]
Zone,Meter,Electricity:Zone:CONFERENCE_20 [J]
Zone,Meter,InteriorLights:Electricity:Zone:CONFERENCE_20 [J]
Zone,Meter,General:InteriorLights:Electricity:Zone:CONFERENCE_20 [J]
Zone,Meter,Electricity:Zone:BREAK_ROOM_20 [J]
Zone,Meter,InteriorLights:Electricity:Zone:BREAK_ROOM_20 [J]
Zone,Meter,General:InteriorLights:Electricity:Zone:BREAK_ROOM_20 [J]
Zone,Meter,Electricity:Zone:MECHANICAL_20 [J]
Zone,Meter,InteriorLights:Electricity:Zone:MECHANICAL_20 [J]
Zone,Meter,General:InteriorLights:Electricity:Zone:MECHANICAL_20 [J]
Zone,Meter,Electricity:Zone:OFFICE_OPEN_20 [J]
Zone,Meter,InteriorLights:Electricity:Zone:OFFICE_OPEN_20 [J]
Zone,Meter,General:InteriorLights:Electricity:Zone:OFFICE_OPEN_20 [J]
Zone,Meter,Electricity:Zone:OFFICE_PRIVATE_20 [J]
Zone,Meter,InteriorLights:Electricity:Zone:OFFICE_PRIVATE_20 [J]
Zone,Meter,General:InteriorLights:Electricity:Zone:OFFICE_PRIVATE_20 [J]
Zone,Meter,Electricity:Zone:CONFERENCE_21 [J]
Zone,Meter,InteriorLights:Electricity:Zone:CONFERENCE_21 [J]
Zone,Meter,General:InteriorLights:Electricity:Zone:CONFERENCE_21 [J]
Zone,Meter,Electricity:Zone:BREAK_ROOM_21 [J]
Zone,Meter,InteriorLights:Electricity:Zone:BREAK_ROOM_21 [J]
Zone,Meter,General:InteriorLights:Electricity:Zone:BREAK_ROOM_21 [J]
Zone,Meter,Electricity:Zone:MECHANICAL_21 [J]
Zone,Meter,InteriorLights:Electricity:Zone:MECHANICAL_21 [J]
Zone,Meter,General:InteriorLights:Electricity:Zone:MECHANICAL_21 [J]
Zone,Meter,Electricity:Zone:OFFICE_OPEN_21 [J]
Zone,Meter,InteriorLights:Electricity:Zone:OFFICE_OPEN_21 [J]
Zone,Meter,General:InteriorLights:Electricity:Zone:OFFICE_OPEN_21 [J]
Zone,Meter,Electricity:Zone:STORAGE_21 [J]
Zone,Meter,InteriorLights:Electricity:Zone:STORAGE_21 [J]
Zone,Meter,General:InteriorLights:Electricity:Zone:STORAGE_21 [J]
Zone,Meter,Electricity:Zone:CONFERENCE_22 [J]
Zone,Meter,InteriorLights:Electricity:Zone:CONFERENCE_22 [J]
Zone,Meter,General:InteriorLights:Electricity:Zone:CONFERENCE_22 [J]
Zone,Meter,Electricity:Zone:BREAK_ROOM_22 [J]
Zone,Meter,InteriorLights:Electricity:Zone:BREAK_ROOM_22 [J]
Zone,Meter,General:InteriorLights:Electricity:Zone:BREAK_ROOM_22 [J]
Zone,Meter,Electricity:Zone:STORAGE_22 [J]
Zone,Meter,InteriorLights:Electricity:Zone:STORAGE_22 [J]
Zone,Meter,General:InteriorLights:Electricity:Zone:STORAGE_22 [J]
Zone,Meter,Electricity:Zone:LOBBY_23 [J]
Zone,Meter,InteriorLights:Electricity:Zone:LOBBY_23 [J]
Zone,Meter,General:InteriorLights:Electricity:Zone:LOBBY_23 [J]
Zone,Meter,Electricity:Zone:CONFERENCE_23 [J]
Zone,Meter,InteriorLights:Electricity:Zone:CONFERENCE_23 [J]
Zone,Meter,General:InteriorLights:Electricity:Zone:CONFERENCE_23 [J]
Zone,Meter,Electricity:Zone:MECHANICAL_23 [J]
Zone,Meter,InteriorLights:Electricity:Zone:MECHANICAL_23 [J]
Zone,Meter,General:InteriorLights:Electricity:Zone:MECHANICAL_23 [J]
Zone,Meter,Electricity:Zone:OFFICE_OPEN_23 [J]
Zone,Meter,InteriorLights:Electricity:Zone:OFFICE_OPEN_23 [J]
Zone,Meter,General:InteriorLights:Electricity:Zone:OFFICE_OPEN_23 [J]
Zone,Meter,Electricity:Zone:OFFICE_PRIVATE_23 [J]
Zone,Meter,InteriorLights:Electricity:Zone:OFFICE_PRIVATE_23 [J]
Zone,Meter,General:InteriorLights:Electricity:Zone:OFFICE_PRIVATE_23 [J]
Zone,Meter,Electricity:Zone:STORAGE_23 [J]
Zone,Meter,InteriorLights:Electricity:Zone:STORAGE_23 [J]
Zone,Meter,General:InteriorLights:Electricity:Zone:STORAGE_23 [J]
Zone,Meter,Electricity:Zone:LOBBY_24 [J]
Zone,Meter,InteriorLights:Electricity:Zone:LOBBY_24 [J]
Zone,Meter,General:InteriorLights:Electricity:Zone:LOBBY_24 [J]
Zone,Meter,Electricity:Zone:BREAK_ROOM_24 [J]
Zone,Meter,InteriorLights:Electricity:Zone:BREAK_ROOM_24 [J]
Zone,Meter,General:InteriorLights:Electricity:Zone:BREAK_ROOM_24 [J]
Zone,Meter,Electricity:Zone:MECHANICAL_24 [J]
Zone,Meter,InteriorLights:Electricity:Zone:MECHANICAL_24 [J]
Zone,Meter,General:InteriorLights:Electricity:Zone:MECHANICAL_24 [J]
Zone,Meter,Electricity:Zone:OFFICE_OPEN_24 [J]
Zone,Meter,InteriorLights:Electricity:Zone:OFFICE_OPEN_24 [J]
Zone,Meter,General:InteriorLights:Electricity:Zone:OFFICE_OPEN_24 [J]
Zone,Meter,Electricity:Zone:LOBBY_25 [J]
Zone,Meter,InteriorLights:Electricity:Zone:LOBBY_25 [J]
Zone,Meter,General:InteriorLights:Electricity:Zone:LOBBY_25 [J]
Zone,Meter,Electricity:Zone:CONFERENCE_25 [J]
Zone,Meter,InteriorLights:Electricity:Zone:CONFERENCE_25 [J]
Zone,Meter,General:InteriorLights:Electricity:Zone:CONFERENCE_25 [J]
Zone,Meter,Electricity:Zone:BREAK_ROOM_25 [J]
Zone,Meter,InteriorLights:Electricity:Zone:BREAK_ROOM_25 [J]
Zone,Meter,General:InteriorLights:Electricity:Zone:BREAK_ROOM_25 [J]
Zone,Meter,Electricity:Zone:OFFICE_PRIVATE_25 [J]
Zone,Meter,InteriorLights:Electricity:Zone:OFFICE_PRIVATE_25 [J]
Zone,Meter,General:InteriorLights:Electricity:Zone:OFFICE_PRIVATE_25 [J]
Zone,Meter,Electricity:Zone:STORAGE_25 [J]
Zone,Meter,InteriorLights:Electricity:Zone:STORAGE_25 [J]
Zone,Meter,General:InteriorLights:Electricity:Zone:STORAGE_25 [J]
Zone,Meter,Electricity:Zone:LOBBY_26 [J]
Zone,Meter,InteriorLights:Electricity:Zone:LOBBY_26 [J]
Zone,Meter,General:InteriorLights:Electricity:Zone:LOBBY_26 [J]
Zone,Meter,Electricity:Zone:BREAK_ROOM_26 [J]
Zone,Meter,InteriorLights:Electricity:Zone:BREAK_ROOM_26 [J]
Zone,Meter,General:InteriorLights:Electricity:Zone:BREAK_ROOM_26 [J]
Zone,Meter,Electricity:Zone:OFFICE_OPEN_26 [J]
Zone,Meter,InteriorLights:Electricity:Zone:OFFICE_OPEN_26 [J]
Zone,Meter,General:InteriorLights:Electricity:Zone:OFFICE_OPEN_26 [J]
Zone,Meter,Electricity:Zone:STORAGE_26 [J]
Zone,Meter,InteriorLights:Electricity:Zone:STORAGE_26 [J]
Zone,Meter,General:InteriorLights:Electricity:Zone:STORAGE_26 [J]
Zone,Meter,Electricity:Zone:LOBBY_27 [J]
Zone,Meter,InteriorLights:Electricity:Zone:LOBBY_27 [J]
Zone,Meter,General:InteriorLights:Electricity:Zone:LOBBY_27 [J]
Zone,Meter,Electricity:Zone:BREAK_ROOM_27 [J]
Zone,Meter,InteriorLights:Electricity:Zone:BREAK_ROOM_27 [J]
Zone,Meter,General:InteriorLights:Electricity:Zone:BREAK_ROOM_27 [J]
Zone,Meter,Electricity:Zone:MECHANICAL_27 [J]
Zone,Meter,InteriorLights:Electricity:Zone:MECHANICAL_27 [J]
Zone,Meter,General:InteriorLights:Electricity:Zone:MECHANICAL_27 [J]
Zone,Meter,Electricity:Zone:LOBBY_28 [J]
Zone,Meter,InteriorLights:Electricity:Zone:LOBBY_28 [J]
Zone,Meter,General:InteriorLights:Electricity:Zone:LOBBY_28 [J]
Zone,Meter,Electricity:Zone:BREAK_ROOM_28 [J]
Zone,Meter,InteriorLights:Electricity:Zone:BREAK_ROOM_28 [J]
Zone,Meter,General:InteriorLights:Electricity:Zone:BREAK_ROOM_28 [J]
Zone,Meter,Electricity:Zone:MECHANICAL_28 [J]
Zone,Meter,InteriorLights:Electricity:Zone:MECHANICAL_28 [J]
Zone,Meter,General:InteriorLights:Electricity:Zone:MECHANICAL_28 [J]
Zone,Meter,Electricity:Zone:OFFICE_PRIVATE_28 [J]
Zone,Meter,InteriorLights:Electricity:Zone:OFFICE_PRIVATE_28 [J]
Zone,Meter,General:InteriorLights:Electricity:Zone:OFFICE_PRIVATE_28 [J]
Zone,Meter,Electricity:Zone:LOBBY_29 [J]
Zone,Meter,InteriorLights:Electricity:Zone:LOBBY_29 [J]
Zone,Meter,General:InteriorLights:Electricity:Zone:LOBBY_29 [J]
Zone,Meter,Electricity:Zone:CONFERENCE_29 [J]
Zone,Meter,InteriorLights:Electricity:Zone:CONFERENCE_29 [J]
Zone,Meter,General:InteriorLights:Electricity:Zone:CONFERENCE_29 [J]
Zone,Meter,Electricity:Zone:MECHANICAL_29 [J]
Zone,Meter,InteriorLights:Electricity:Zone:MECHANICAL_29 [J]
Zone,Meter,General:InteriorLights:Electricity:Zone:MECHANICAL_29 [J]
Zone,Meter,Electricity:Zone:STORAGE_29 [J]
Zone,Meter,InteriorLights:Electricity:Zone:STORAGE_29 [J]
Zone,Meter,General:InteriorLights:Electricity:Zone:STORAGE_29 [J]
Zone,Meter,Electricity:Zone:CONFERENCE_30 [J]
Zone,Meter,InteriorLights:Electricity:Zone:CONFERENCE_30 [J]
Zone,Meter,General:InteriorLights:Electricity:Zone:CONFERENCE_30 [J]
Zone,Meter,Electricity:Zone:BREAK_ROOM_30 [J]
Zone,Meter,InteriorLights:Electricity:Zone:BREAK_ROOM_30 [J]
Zone,Meter,General:InteriorLights:Electricity:Zone:BREAK_ROOM_30 [J]
Zone,Meter,Electricity:Zone:LOBBY_31 [J]
Zone,Meter,InteriorLights:Electricity:Zone:LOBBY_31 [J]
Zone,Meter,General:InteriorLights:Electricity:Zone:LOBBY_31 [J]
Zone,Meter,Electricity:Zone:CONFERENCE_31 [J]
Zone,Meter,InteriorLights:Electricity:Zone:CONFERENCE_31 [J]
Zone,Meter,General:InteriorLights:Electricity:Zone:CONFERENCE_31 [J]
Zone,Meter,Electricity:Zone:MECHANICAL_31 [J]
Zone,Meter,InteriorLights:Electricity:Zone:MECHANICAL_31 [J]
Zone,Meter,General:InteriorLights:Electricity:Zone:MECHANICAL_31 [J]
Zone,Meter,Electricity:Zone:OFFICE_PRIVATE_31 [J]
Zone,Meter,InteriorLights:Electricity:Zone:OFFICE_PRIVATE_31 [J]
Zone,Meter,General:InteriorLights:Electricity:Zone:OFFICE_PRIVATE_31 [J]
Zone,Meter,Electricity:Zone:STORAGE_31 [J]
Zone,Meter,InteriorLights:Electricity:Zone:STORAGE_31 [J]
Zone,Meter,General:InteriorLights:Electricity:Zone:STORAGE_31 [J]
Zone,Meter,Electricity:Zone:MECHANICAL_32 [J]
Zone,Meter,InteriorLights:Electricity:Zone:MECHANICAL_32 [J]
Zone,Meter,General:InteriorLights:Electricity:Zone:MECHANICAL_32 [J]
Zone,Meter,Electricity:Zone:STORAGE_32 [J]
Zone,Meter,InteriorLights:Electricity:Zone:STORAGE_32 [J]
Zone,Meter,General:InteriorLights:Electricity:Zone:STORAGE_32 [J]
Zone,Meter,Electricity:Zone:CONFERENCE_33 [J]
Zone,Meter,InteriorLights:Electricity:Zone:CONFERENCE_33 [J]
Zone,Meter,General:InteriorLights:Electricity:Zone:CONFERENCE_33 [J]
Zone,Meter,Electricity:Zone:MECHANICAL_33 [J]
Zone,Meter,InteriorLights:Electricity:Zone:MECHANICAL_33 [J]
Zone,Meter,General:InteriorLights:Electricity:Zone:MECHANICAL_33 [J]
Zone,Meter,Electricity:Zone:OFFICE_OPEN_33 [J]
Zone,Meter,InteriorLights:Electricity:Zone:OFFICE_OPEN_33 [J]
Zone,Meter,General:InteriorLights:Electricity:Zone:OFFICE_OPEN_33 [J]
Zone,Meter,Electricity:Zone:OFFICE_PRIVATE_34 [J]
Zone,Meter,InteriorLights:Electricity:Zone:OFFICE_PRIVATE_34 [J]
Zone,Meter,General:InteriorLights:Electricity:Zone:OFFICE_PRIVATE_34 [J]
Zone,Meter,Electricity:Zone:BREAK_ROOM_35 [J]
Zone,Meter,InteriorLights:Electricity:Zone:BREAK_ROOM_35 [J]
Zone,Meter,General:InteriorLights:Electricity:Zone:BREAK_ROOM_35 [J]
Zone,Meter,Electricity:Zone:MECHANICAL_35 [J]
Zone,Meter,InteriorLights:Electricity:Zone:MECHANICAL_35 [J]
Zone,Meter,General:InteriorLights:Electricity:Zone:MECHANICAL_35 [J]
Zone,Meter,Electricity:Zone:STORAGE_35 [J]
Zone,Meter,InteriorLights:Electricity:Zone:STORAGE_35 [J]
Zone,Meter,General:InteriorLights:Electricity:Zone:STORAGE_35 [J]
Zone,Meter,Electricity:Zone:CONFERENCE_36 [J]
Zone,Meter,InteriorLights:Electricity:Zone:CONFERENCE_36 [J]
Zone,Meter,General:InteriorLights:Electricity:Zone:CONFERENCE_36 [J]
Zone,Meter,Electricity:Zone:BREAK_ROOM_36 [J]
Zone,Meter,InteriorLights:Electricity:Zone:BREAK_ROOM_36 [J]
Zone,Meter,General:InteriorLights:Electricity:Zone:BREAK_ROOM_36 [J]
Zone,Meter,Electricity:Zone:MECHANICAL_36 [J]
Zone,Meter,InteriorLights:Electricity:Zone:MECHANICAL_36 [J]
Zone,Meter,General:InteriorLights:Electricity:Zone:MECHANICAL_36 [J]
Zone,Meter,Electricity:Zone:OFFICE_OPEN_36 [J]
Zone,Meter,InteriorLights:Electricity:Zone:OFFICE_OPEN_36 [J]
Zone,Meter,General:InteriorLights:Electricity:Zone:OFFICE_OPEN_36 [J]
Zone,Meter,Electricity:Zone:CONFERENCE_37 [J]
Zone,Meter,InteriorLights:Electricity:Zone:CONFERENCE_37 [J]
Zone,Meter,General:InteriorLights:Electricity:Zone:CONFERENCE_37 [J]
Zone,Meter,Electricity:Zone:BREAK_ROOM_37 [J]
Zone,Meter,InteriorLights:Electricity:Zone:BREAK_ROOM_37 [J]
Zone,Meter,General:InteriorLights:Electricity:Zone:BREAK_ROOM_37 [J]
Zone,Meter,Electricity:Zone:OFFICE_PRIVATE_37 [J]
Zone,Meter,InteriorLights:Electricity:Zone:OFFICE_PRIVATE_37 [J]
Zone,Meter,General:InteriorLights:Electricity:Zone:OFFICE_PRIVATE_37 [J]
Zone,Meter,Electricity:Zone:STORAGE_37 [J]
Zone,Meter,InteriorLights:Electricity:Zone:STORAGE_37 [J]
Zone,Meter,General:InteriorLights:Electricity:Zone:STORAGE_37 [J]
Zone,Meter,Electricity:Zone:CONFERENCE_38 [J]
Zone,Meter,InteriorLights:Electricity:Zone:CONFERENCE_38 [J]
Zone,Meter,General:InteriorLights:Electricity:Zone:CONFERENCE_38 [J]
Zone,Meter,Electricity:Zone:BREAK_ROOM_38 [J]
Zone,Meter,InteriorLights:Electricity:Zone:BREAK_ROOM_38 [J]
Zone,Meter,General:InteriorLights:Electricity:Zone:BREAK_ROOM_38 [J]
Zone,Meter,Electricity:Zone:MECHANICAL_38 [J]
Zone,Meter,InteriorLights:Electricity:Zone:MECHANICAL_38 [J]
Zone,Meter,General:InteriorLights:Electricity:Zone:MECHANICAL_38 [J]
Zone,Meter,Electricity:Zone:OFFICE_OPEN_38 [J]
Zone,Meter,InteriorLights:Electricity:Zone:OFFICE_OPEN_38 [J]
Zone,Meter,General:InteriorLights:Electricity:Zone:OFFICE_OPEN_38 [J]
Zone,Meter,Electricity:Zone:OFFICE_PRIVATE_38 [J]
Zone,Meter,InteriorLights:Electricity:Zone:OFFICE_PRIVATE_38 [J]
Zone,Meter,General:InteriorLights:Electricity:Zone:OFFICE_PRIVATE_38 [J]
Zone,Meter,Electricity:Zone:CONFERENCE_39 [J]
Zone,Meter,InteriorLights:Electricity:Zone:CONFERENCE_39 [J]
Zone,Meter,General:InteriorLights:Electricity:Zone:CONFERENCE_39 [J]
Zone,Meter,Electricity:Zone:BREAK_ROOM_39 [J]
Zone,Meter,InteriorLights:Electricity:Zone:BREAK_ROOM_39 [J]
Zone,Meter,General:InteriorLights:Electricity:Zone:BREAK_ROOM_39 [J]
Zone,Meter,Electricity:Zone:MECHANICAL_39 [J]
Zone,Meter,InteriorLights:Electricity:Zone:MECHANICAL_39 [J]
Zone,Meter,General:InteriorLights:Electricity:Zone:MECHANICAL_39 [J]
Zone,Meter,Electricity:Zone:OFFICE_PRIVATE_39 [J]
Zone,Meter,InteriorLights:Electricity:Zone:OFFICE_PRIVATE_39 [J]
Zone,Meter,General:InteriorLights:Electricity:Zone:OFFICE_PRIVATE_39 [J]
Zone,Meter,Electricity:Zone:STORAGE_39 [J]
Zone,Meter,InteriorLights:Electricity:Zone:STORAGE_39 [J]
Zone,Meter,General:InteriorLights:Electricity:Zone:STORAGE_39 [J]
Zone,Meter,Electricity:Zone:LOBBY_40 [J]
Zone,Meter,InteriorLights:Electricity:Zone:LOBBY_40 [J]
Zone,Meter,General:InteriorLights:Electricity:Zone:LOBBY_40 [J]
Zone,Meter,Electricity:Zone:CONFERENCE_40 [J]
Zone,Meter,InteriorLights:Electricity:Zone:CONFERENCE_40 [J]
Zone,Meter,General:InteriorLights:Electricity:Zone:CONFERENCE_40 [J]
Zone,Meter,Electricity:Zone:BREAK_ROOM_40 [J]
Zone,Meter,InteriorLights:Electricity:Zone:BREAK_ROOM_40 [J]
Zone,Meter,General:InteriorLights:Electricity:Zone:BREAK_ROOM_40 [J]
Zone,Meter,Electricity:Zone:MECHANICAL_40 [J]
Zone,Meter,InteriorLights:Electricity:Zone:MECHANICAL_40 [J]
Zone,Meter,General:InteriorLights:Electricity:Zone:MECHANICAL_40 [J]
Zone,Meter,Electricity:Zone:OFFICE_OPEN_40 [J]
Zone,Meter,InteriorLights:Electricity:Zone:OFFICE_OPEN_40 [J]
Zone,Meter,General:InteriorLights:Electricity:Zone:OFFICE_OPEN_40 [J]
Zone,Meter,Electricity:Zone:STORAGE_40 [J]
Zone,Meter,InteriorLights:Electricity:Zone:STORAGE_40 [J]
Zone,Meter,General:InteriorLights:Electricity:Zone:STORAGE_40 [J]
Zone,Meter,Electricity:Zone:CONFERENCE_41 [J]
Zone,Meter,InteriorLights:Electricity:Zone:CONFERENCE_41 [J]
Zone,Meter,General:InteriorLights:Electricity:Zone:CONFERENCE_41 [J]
Zone,Meter,Electricity:Zone:MECHANICAL_41 [J]
Zone,Meter,InteriorLights:Electricity:Zone:MECHANICAL_41 [J]
Zone,Meter,General:InteriorLights:Electricity:Zone:MECHANICAL_41 [J]
Zone,Meter,Electricity:Zone:OFFICE_OPEN_41 [J]
Zone,Meter,InteriorLights:Electricity:Zone:OFFICE_OPEN_41 [J]
Zone,Meter,General:InteriorLights:Electricity:Zone:OFFICE_OPEN_41 [J]
Zone,Meter,Electricity:Zone:OFFICE_PRIVATE_41 [J]
Zone,Meter,InteriorLights:Electricity:Zone:OFFICE_PRIVATE_41 [J]
Zone,Meter,General:InteriorLights:Electricity:Zone:OFFICE_PRIVATE_41 [J]
Zone,Meter,Electricity:Zone:STORAGE_41 [J]
Zone,Meter,InteriorLights:Electricity:Zone:STORAGE_41 [J]
Zone,Meter,General:InteriorLights:Electricity:Zone:STORAGE_41 [J]
Zone,Meter,Electricity:Zone:LOBBY_42 [J]
Zone,Meter,InteriorLights:Electricity:Zone:LOBBY_42 [J]
Zone,Meter,General:InteriorLights:Electricity:Zone:LOBBY_42 [J]
Zone,Meter,Electricity:Zone:CONFERENCE_42 [J]
Zone,Meter,InteriorLights:Electricity:Zone:CONFERENCE_42 [J]
Zone,Meter,General:InteriorLights:Electricity:Zone:CONFERENCE_42 [J]
Zone,Meter,Electricity:Zone:MECHANICAL_42 [J]
Zone,Meter,InteriorLights:Electricity:Zone:MECHANICAL_42 [J]
Zone,Meter,General:InteriorLights:Electricity:Zone:MECHANICAL_42 [J]
Zone,Meter,Electricity:Zone:OFFICE_OPEN_42 [J]
Zone,Meter,InteriorLights:Electricity:Zone:OFFICE_OPEN_42 [J]
Zone,Meter,General:InteriorLights:Electricity:Zone:OFFICE_OPEN_42 [J]
Zone,Meter,Electricity:Zone:LOBBY_43 [J]
Zone,Meter,InteriorLights:Electricity:Zone:LOBBY_43 [J]
Zone,Meter,General:InteriorLights:Electricity:Zone:LOBBY_43 [J]
Zone,Meter,Electricity:Zone:BREAK_ROOM_43 [J]
Zone,Meter,InteriorLights:Electricity:Zone:BREAK_ROOM_43 [J]
Zone,Meter,General:InteriorLights:Electricity:Zone:BREAK_ROOM_43 [J]
Zone,Meter,Electricity:Zone:MECHANICAL_43 [J]
Zone,Meter,InteriorLights:Electricity:Zone:MECHANICAL_43 [J]
Zone,Meter,General:InteriorLights:Electricity:Zone:MECHANICAL_43 [J]
Zone,Meter,Electricity:Zone:OFFICE_PRIVATE_43 [J]
Zone,Meter,InteriorLights:Electricity:Zone:OFFICE_PRIVATE_43 [J]
Zone,Meter,General:InteriorLights:Electricity:Zone:OFFICE_PRIVATE_43 [J]
Zone,Meter,Electricity:Zone:STORAGE_43 [J]
Zone,Meter,InteriorLights:Electricity:Zone:STORAGE_43 [J]
Zone,Meter,General:InteriorLights:Electricity:Zone:STORAGE_43 [J]
Zone,Meter,Electricity:Zone:LOBBY_44 [J]
Zone,Meter,InteriorLights:Electricity:Zone:LOBBY_44 [J]
Zone,Meter,General:InteriorLights:Electricity:Zone:LOBBY_44 [J]
Zone,Meter,Electricity:Zone:CONFERENCE_44 [J]
Zone,Meter,InteriorLights:Electricity:Zone:CONFERENCE_44 [J]
Zone,Meter,General:InteriorLights:Electricity:Zone:CONFERENCE_44 [J]
Zone,Meter,Electricity:Zone:BREAK_ROOM_44 [J]
Zone,Meter,InteriorLights:Electricity:Zone:BREAK_ROOM_44 [J]
Zone,Meter,General:InteriorLights:Electricity:Zone:BREAK_ROOM_44 [J]
Zone,Meter,Electricity:Zone:MECHANICAL_44 [J]
Zone,Meter,InteriorLights:Electricity:Zone:MECHANICAL_44 [J]
Zone,Meter,General:InteriorLights:Electricity:Zone:MECHANICAL_44 [J]
Zone,Meter,Electricity:Zone:OFFICE_OPEN_44 [J]
Zone,Meter,InteriorLights:Electricity:Zone:OFFICE_OPEN_44 [J]
Zone,Meter,General:InteriorLights:Electricity:Zone:OFFICE_OPEN_44 [J]
Zone,Meter,Electricity:Zone:OFFICE_PRIVATE_44 [J]
Zone,Meter,InteriorLights:Electricity:Zone:OFFICE_PRIVATE_44 [J]
Zone,Meter,General:InteriorLights:Electricity:Zone:OFFICE_PRIVATE_44 [J]
Zone,Meter,Electricity:Zone:STORAGE_44 [J]
Zone,Meter,InteriorLights:Electricity:Zone:STORAGE_44 [J]
Zone,Meter,General:InteriorLights:Electricity:Zone:STORAGE_44 [J]
Zone,Meter,Electricity:Zone:CONFERENCE_45 [J]
Zone,Meter,InteriorLights:Electricity:Zone:CONFERENCE_45 [J]
Zone,Meter,General:InteriorLights:Electricity:Zone:CONFERENCE_45 [J]
Zone,Meter,Electricity:Zone:BREAK_ROOM_45 [J]
Zone,Meter,InteriorLights:Electricity:Zone:BREAK_ROOM_45 [J]
Zone,Meter,General:InteriorLights:Electricity:Zone:BREAK_ROOM_45 [J]
Zone,Meter,Electricity:Zone:MECHANICAL_45 [J]
Zone,Meter,InteriorLights:Electricity:Zone:MECHANICAL_45 [J]
Zone,Meter,General:InteriorLights:Electricity:Zone:MECHANICAL_45 [J]
Zone,Meter,Electricity:Zone:OFFICE_OPEN_45 [J]
Zone,Meter,InteriorLights:Electricity:Zone:OFFICE_OPEN_45 [J]
Zone,Meter,General:InteriorLights:Electricity:Zone:OFFICE_OPEN_45 [J]
Zone,Meter,Electricity:Zone:STORAGE_45 [J]
Zone,Meter,InteriorLights:Electricity:Zone:STORAGE_45 [J]
Zone,Meter,General:InteriorLights:Electricity:Zone:STORAGE_45 [J]
Zone,Meter,Electricity:Zone:MECHANICAL_46 [J]
Zone,Meter,InteriorLights:Electricity:Zone:MECHANICAL_46 [J]
Zone,Meter,General:InteriorLights:Electricity:Zone:MECHANICAL_46 [J]
Zone,Meter,Electricity:Zone:OFFICE_PRIVATE_46 [J]
Zone,Meter,InteriorLights:Electricity:Zone:OFFICE_PRIVATE_46 [J]
Zone,Meter,General:InteriorLights:Electricity:Zone:OFFICE_PRIVATE_46 [J]
Zone,Meter,Electricity:Zone:CONFERENCE_47 [J]
Zone,Meter,InteriorLights:Electricity:Zone:CONFERENCE_47 [J]
Zone,Meter,General:InteriorLights:Electricity:Zone:CONFERENCE_47 [J]
Zone,Meter,Electricity:Zone:BREAK_ROOM_47 [J]
Zone,Meter,InteriorLights:Electricity:Zone:BREAK_ROOM_47 [J]
Zone,Meter,General:InteriorLights:Electricity:Zone:BREAK_ROOM_47 [J]
Zone,Meter,Electricity:Zone:MECHANICAL_47 [J]
Zone,Meter,InteriorLights:Electricity:Zone:MECHANICAL_47 [J]
Zone,Meter,General:InteriorLights:Electricity:Zone:MECHANICAL_47 [J]
Zone,Meter,Electricity:Zone:OFFICE_PRIVATE_47 [J]
Zone,Meter,InteriorLights:Electricity:Zone:OFFICE_PRIVATE_47 [J]
Zone,Meter,General:InteriorLights:Electricity:Zone:OFFICE_PRIVATE_47 [J]
Zone,Meter,Electricity:Zone:LOBBY_48 [J]
Zone,Meter,InteriorLights:Electricity:Zone:LOBBY_48 [J]
Zone,Meter,General:InteriorLights:Electricity:Zone:LOBBY_48 [J]
Zone,Meter,Electricity:Zone:CONFERENCE_48 [J]
Zone,Meter,InteriorLights:Electricity:Zone:CONFERENCE_48 [J]
Zone,Meter,General:InteriorLights:Electricity:Zone:CONFERENCE_48 [J]
Zone,Meter,Electricity:Zone:MECHANICAL_48 [J]
Zone,Meter,InteriorLights:Electricity:Zone:MECHANICAL_48 [J]
Zone,Meter,General:InteriorLights:Electricity:Zone:MECHANICAL_48 [J]
Zone,Meter,Electricity:Zone:OFFICE_PRIVATE_48 [J]
Zone,Meter,InteriorLights:Electricity:Zone:OFFICE_PRIVATE_48 [J]
Zone,Meter,General:InteriorLights:Electricity:Zone:OFFICE_PRIVATE_48 [J]
Zone,Meter,Electricity:Zone:STORAGE_48 [J]
Zone,Meter,InteriorLights:Electricity:Zone:STORAGE_48 [J]
Zone,Meter,General:InteriorLights:Electricity:Zone:STORAGE_48 [J]
Zone,Meter,Electricity:Zone:BREAK_ROOM_49 [J]
Zone,Meter,InteriorLights:Electricity:Zone:BREAK_ROOM_49 [J]
Zone,Meter,General:InteriorLights:Electricity:Zone:BREAK_ROOM_49 [J]
Zone,Meter,Electricity:Zone:MECHANICAL_49 [J]
Zone,Meter,InteriorLights:Electricity:Zone:MECHANICAL_49 [J]
Zone,Meter,General:InteriorLights:Electricity:Zone:MECHANICAL_49 [J]
Zone,Meter,Electricity:Zone:OFFICE_PRIVATE_49 [J]
Zone,Meter,InteriorLights:Electricity:Zone:OFFICE_PRIVATE_49 [J]
Zone,Meter,General:InteriorLights:Electricity:Zone:OFFICE_PRIVATE_49 [J]
Zone,Meter,Electricity:Zone:LOBBY_50 [J]
Zone,Meter,InteriorLights:Electricity:Zone:LOBBY_50 [J]
Zone,Meter,General:InteriorLights:Electricity:Zone:LOBBY_50 [J]
Zone,Meter,Electricity:Zone:CONFERENCE_50 [J]
Zone,Meter,InteriorLights:Electricity:Zone:CONFERENCE_50 [J]
Zone,Meter,General:InteriorLights:Electricity:Zone:CONFERENCE_50 [J]
Zone,Meter,Electricity:Zone:BREAK_ROOM_50 [J]
Zone,Meter,InteriorLights:Electricity:Zone:BREAK_ROOM_50 [J]
Zone,Meter,General:InteriorLights:Electricity:Zone:BREAK_ROOM_50 [J]
Zone,Meter,Electricity:Zone:MECHANICAL_50 [J]
Zone,Meter,InteriorLights:Electricity:Zone:MECHANICAL_50 [J]
Zone,Meter,General:InteriorLights:Electricity:Zone:MECHANICAL_50 [J]
Zone,Meter,Electricity:Zone:OFFICE_PRIVATE_50 [J]
Zone,Meter,InteriorLights:Electricity:Zone:OFFICE_PRIVATE_50 [J]
Zone,Meter,General:InteriorLights:Electricity:Zone:OFFICE_PRIVATE_50 [J]
Zone,Meter,Electricity:Zone:STORAGE_50 [J]
Zone,Meter,InteriorLights:Electricity:Zone:STORAGE_50 [J]
Zone,Meter,General:InteriorLights:Electricity:Zone:STORAGE_50 [J]
Zone,Meter,Electricity:Zone:CONFERENCE_51 [J]
Zone,Meter,InteriorLights:Electricity:Zone:CONFERENCE_51 [J]
Zone,Meter,General:InteriorLights:Electricity:Zone:CONFERENCE_51 [J]
Zone,Meter,Electricity:Zone:BREAK_ROOM_51 [J]
Zone,Meter,InteriorLights:Electricity:Zone:BREAK_ROOM_51 [J]
Zone,Meter,General:InteriorLights:Electricity:Zone:BREAK_ROOM_51 [J]
Zone,Meter,Electricity:Zone:OFFICE_PRIVATE_51 [J]
Zone,Meter,InteriorLights:Electricity:Zone:OFFICE_PRIVATE_51 [J]
Zone,Meter,General:InteriorLights:Electricity:Zone:OFFICE_PRIVATE_51 [J]
Zone,Meter,Electricity:Zone:LOBBY_52 [J]
Zone,Meter,InteriorLights:Electricity:Zone:LOBBY_52 [J]
Zone,Meter,General:InteriorLights:Electricity:Zone:LOBBY_52 [J]
Zone,Meter,Electricity:Zone:CONFERENCE_52 [J]
Zone,Meter,InteriorLights:Electricity:Zone:CONFERENCE_52 [J]
Zone,Meter,General:InteriorLights:Electricity:Zone:CONFERENCE_52 [J]
Zone,Meter,Electricity:Zone:MECHANICAL_52 [J]
Zone,Meter,InteriorLights:Electricity:Zone:MECHANICAL_52 [J]
Zone,Meter,General:InteriorLights:Electricity:Zone:MECHANICAL_52 [J]
Zone,Meter,Electricity:Zone:OFFICE_PRIVATE_52 [J]
Zone,Meter,InteriorLights:Electricity:Zone:OFFICE_PRIVATE_52 [J]
Zone,Meter,General:InteriorLights:Electricity:Zone:OFFICE_PRIVATE_52 [J]
Zone,Meter,Electricity:Zone:STORAGE_52 [J]
Zone,Meter,InteriorLights:Electricity:Zone:STORAGE_52 [J]
Zone,Meter,General:InteriorLights:Electricity:Zone:STORAGE_52 [J]
Zone,Meter,Electricity:Zone:BREAK_ROOM_53 [J]
Zone,Meter,InteriorLights:Electricity:Zone:BREAK_ROOM_53 [J]
Zone,Meter,General:InteriorLights:Electricity:Zone:BREAK_ROOM_53 [J]
Zone,Meter,Electricity:Zone:OFFICE_OPEN_53 [J]
Zone,Meter,InteriorLights:Electricity:Zone:OFFICE_OPEN_53 [J]
Zone,Meter,General:InteriorLights:Electricity:Zone:OFFICE_OPEN_53 [J]
Zone,Meter,Electricity:Zone:LOBBY_54 [J]
Zone,Meter,InteriorLights:Electricity:Zone:LOBBY_54 [J]
Zone,Meter,General:InteriorLights:Electricity:Zone:LOBBY_54 [J]
Zone,Meter,Electricity:Zone:CONFERENCE_54 [J]
Zone,Meter,InteriorLights:Electricity:Zone:CONFERENCE_54 [J]
Zone,Meter,General:InteriorLights:Electricity:Zone:CONFERENCE_54 [J]
Zone,Meter,Electricity:Zone:BREAK_ROOM_54 [J]
Zone,Meter,InteriorLights:Electricity:Zone:BREAK_ROOM_54 [J]
Zone,Meter,General:InteriorLights:Electricity:Zone:BREAK_ROOM_54 [J]
Zone,Meter,Electricity:Zone:MECHANICAL_54 [J]
Zone,Meter,InteriorLights:Electricity:Zone:MECHANICAL_54 [J]
Zone,Meter,General:InteriorLights:Electricity:Zone:MECHANICAL_54 [J]
Zone,Meter,Electricity:Zone:OFFICE_PRIVATE_54 [J]
Zone,Meter,InteriorLights:Electricity:Zone:OFFICE_PRIVATE_54 [J]
Zone,Meter,General:InteriorLights:Electricity:Zone:OFFICE_PRIVATE_54 [J]
Zone,Meter,Electricity:Zone:STORAGE_54 [J]
Zone,Meter,InteriorLights:Electricity:Zone:STORAGE_54 [J]
Zone,Meter,General:InteriorLights:Electricity:Zone:STORAGE_54 [J]
Zone,Meter,Electricity:Zone:OFFICE_OPEN_55 [J]
Zone,Meter,InteriorLights:Electricity:Zone:OFFICE_OPEN_55 [J]
Zone,Meter,General:InteriorLights:Electricity:Zone:OFFICE_OPEN_55 [J]
Zone,Meter,Electricity:Zone:OFFICE_PRIVATE_55 [J]
Zone,Meter,InteriorLights:Electricity:Zone:OFFICE_PRIVATE_55 [J]
Zone,Meter,General:InteriorLights:Electricity:Zone:OFFICE_PRIVATE_55 [J]
Zone,Meter,Electricity:Zone:STORAGE_55 [J]
Zone,Meter,InteriorLights:Electricity:Zone:STORAGE_55 [J]
Zone,Meter,General:InteriorLights:Electricity:Zone:STORAGE_55 [J]
Zone,Meter,Electricity:Zone:LOBBY_56 [J]
Zone,Meter,InteriorLights:Electricity:Zone:LOBBY_56 [J]
Zone,Meter,General:InteriorLights:Electricity:Zone:LOBBY_56 [J]
Zone,Meter,Electricity:Zone:CONFERENCE_56 [J]
Zone,Meter,InteriorLights:Electricity:Zone:CONFERENCE_56 [J]
Zone,Meter,General:InteriorLights:Electricity:Zone:CONFERENCE_56 [J]
Zone,Meter,Electricity:Zone:OFFICE_PRIVATE_56 [J]
Zone,Meter,InteriorLights:Electricity:Zone:OFFICE_PRIVATE_56 [J]
Zone,Meter,General:InteriorLights:Electricity:Zone:OFFICE_PRIVATE_56 [J]
Zone,Meter,Electricity:Zone:STORAGE_56 [J]
Zone,Meter,InteriorLights:Electricity:Zone:STORAGE_56 [J]
Zone,Meter,General:InteriorLights:Electricity:Zone:STORAGE_56 [J]
Zone,Meter,Electricity:Zone:CONFERENCE_57 [J]
Zone,Meter,InteriorLights:Electricity:Zone:CONFERENCE_57 [J]
Zone,Meter,General:InteriorLights:Electricity:Zone:CONFERENCE_57 [J]
Zone,Meter,Electricity:Zone:BREAK_ROOM_57 [J]
Zone,Meter,InteriorLights:Electricity:Zone:BREAK_ROOM_57 [J]
Zone,Meter,General:InteriorLights:Electricity:Zone:BREAK_ROOM_57 [J]
Zone,Meter,Electricity:Zone:OFFICE_PRIVATE_57 [J]
Zone,Meter,InteriorLights:Electricity:Zone:OFFICE_PRIVATE_57 [J]
Zone,Meter,General:InteriorLights:Electricity:Zone:OFFICE_PRIVATE_57 [J]
Zone,Meter,Electricity:Zone:LOBBY_58 [J]
Zone,Meter,InteriorLights:Electricity:Zone:LOBBY_58 [J]
Zone,Meter,General:InteriorLights:Electricity:Zone:LOBBY_58 [J]
Zone,Meter,Electricity:Zone:OFFICE_OPEN_58 [J]
Zone,Meter,InteriorLights:Electricity:Zone:OFFICE_OPEN_58 [J]
Zone,Meter,General:InteriorLights:Electricity:Zone:OFFICE_OPEN_58 [J]
Zone,Meter,Electricity:Zone:LOBBY_59 [J]
Zone,Meter,InteriorLights:Electricity:Zone:LOBBY_59 [J]
Zone,Meter,General:InteriorLights:Electricity:Zone:LOBBY_59 [J]
Zone,Meter,Electricity:Zone:CONFERENCE_59 [J]
Zone,Meter,InteriorLights:Electricity:Zone:CONFERENCE_59 [J]
Zone,Meter,General:InteriorLights:Electricity:Zone:CONFERENCE_59 [J]
Zone,Meter,Electricity:Zone:BREAK_ROOM_59 [J]
Zone,Meter,InteriorLights:Electricity:Zone:BREAK_ROOM_59 [J]
Zone,Meter,General:InteriorLights:Electricity:Zone:BREAK_ROOM_59 [J]
Zone,Meter,Electricity:Zone:MECHANICAL_59 [J]
Zone,Meter,InteriorLights:Electricity:Zone:MECHANICAL_59 [J]
Zone,Meter,General:InteriorLights:Electricity:Zone:MECHANICAL_59 [J]
Zone,Meter,Electricity:Zone:OFFICE_PRIVATE_59 [J]
Zone,Meter,InteriorLights:Electricity:Zone:OFFICE_PRIVATE_59 [J]
Zone,Meter,General:InteriorLights:Electricity:Zone:OFFICE_PRIVATE_59 [J]
Zone,Meter,Electricity:Zone:LOBBY_60 [J]
Zone,Meter,InteriorLights:Electricity:Zone:LOBBY_60 [J]
Zone,Meter,General:InteriorLights:Electricity:Zone:LOBBY_60 [J]
Zone,Meter,Electricity:Zone:CONFERENCE_60 [J]
Zone,Meter,InteriorLights:Electricity:Zone:CONFERENCE_60 [J]
Zone,Meter,General:InteriorLights:Electricity:Zone:CONFERENCE_60 [J]
Zone,Meter,Electricity:Zone:OFFICE_OPEN_61 [J]
Zone,Meter,InteriorLights:Electricity:Zone:OFFICE_OPEN_61 [J]
Zone,Meter,General:InteriorLights:Electricity:Zone:OFFICE_OPEN_61 [J]
Zone,Meter,Electricity:Zone:STORAGE_61 [J]
Zone,Meter,InteriorLights:Electricity:Zone:STORAGE_61 [J]
Zone,Meter,General:InteriorLights:Electricity:Zone:STORAGE_61 [J]
Zone,Meter,Electricity:Zone:BREAK_ROOM_62 [J]
Zone,Meter,InteriorLights:Electricity:Zone:BREAK_ROOM_62 [J]
Zone,Meter,General:InteriorLights:Electricity:Zone:BREAK_ROOM_62 [J]
Zone,Meter,Electricity:Zone:OFFICE_OPEN_62 [J]
Zone,Meter,InteriorLights:Electricity:Zone:OFFICE_OPEN_62 [J]
Zone,Meter,General:InteriorLights:Electricity:Zone:OFFICE_OPEN_62 [J]
Zone,Meter,Electricity:Zone:OFFICE_PRIVATE_62 [J]
Zone,Meter,InteriorLights:Electricity:Zone:OFFICE_PRIVATE_62 [J]
Zone,Meter,General:InteriorLights:Electricity:Zone:OFFICE_PRIVATE_62 [J]
Zone,Meter,Electricity:Zone:OFFICE_OPEN_63 [J]
Zone,Meter,InteriorLights:Electricity:Zone:OFFICE_OPEN_63 [J]
Zone,Meter,General:InteriorLights:Electricity:Zone:OFFICE_OPEN_63 [J]
Zone,Meter,Electricity:Zone:OFFICE_PRIVATE_63 [J]
Zone,Meter,InteriorLights:Electricity:Zone:OFFICE_PRIVATE_63 [J]
Zone,Meter,General:InteriorLights:Electricity:Zone:OFFICE_PRIVATE_63 [J]
Zone,Meter,Electricity:Zone:LOBBY_64 [J]
Zone,Meter,InteriorLights:Electricity:Zone:LOBBY_64 [J]
Zone,Meter,General:InteriorLights:Electricity:Zone:LOBBY_64 [J]
Zone,Meter,Electricity:Zone:CONFERENCE_64 [J]
Zone,Meter,InteriorLights:Electricity:Zone:CONFERENCE_64 [J]
Zone,Meter,General:InteriorLights:Electricity:Zone:CONFERENCE_64 [J]
Zone,Meter,Electricity:Zone:OFFICE_OPEN_64 [J]
Zone,Meter,InteriorLights:Electricity:Zone:OFFICE_OPEN_64 [J]
Zone,Meter,General:InteriorLights:Electricity:Zone:OFFICE_OPEN_64 [J]
Zone,Meter,Electricity:Zone:OFFICE_PRIVATE_64 [J]
Zone,Meter,InteriorLights:Electricity:Zone:OFFICE_PRIVATE_64 [J]
Zone,Meter,General:InteriorLights:Electricity:Zone:OFFICE_PRIVATE_64 [J]
Zone,Meter,Electricity:Zone:OFFICE_OPEN_65 [J]
Zone,Meter,InteriorLights:Electricity:Zone:OFFICE_OPEN_65 [J]
Zone,Meter,General:InteriorLights:Electricity:Zone:OFFICE_OPEN_65 [J]
Zone,Meter,Electricity:Zone:STORAGE_65 [J]
Zone,Meter,InteriorLights:Electricity:Zone:STORAGE_65 [J]
Zone,Meter,General:InteriorLights:Electricity:Zone:STORAGE_65 [J]
Zone,Meter,Electricity:Zone:BREAK_ROOM_66 [J]
Zone,Meter,InteriorLights:Electricity:Zone:BREAK_ROOM_66 [J]
Zone,Meter,General:InteriorLights:Electricity:Zone:BREAK_ROOM_66 [J]
Zone,Meter,Electricity:Zone:MECHANICAL_66 [J]
Zone,Meter,InteriorLights:Electricity:Zone:MECHANICAL_66 [J]
Zone,Meter,General:InteriorLights:Electricity:Zone:MECHANICAL_66 [J]
Zone,Meter,Electricity:Zone:OFFICE_OPEN_67 [J]
Zone,Meter,InteriorLights:Electricity:Zone:OFFICE_OPEN_67 [J]
Zone,Meter,General:InteriorLights:Electricity:Zone:OFFICE_OPEN_67 [J]
Zone,Meter,Electricity:Zone:STORAGE_67 [J]
Zone,Meter,InteriorLights:Electricity:Zone:STORAGE_67 [J]
Zone,Meter,General:InteriorLights:Electricity:Zone:STORAGE_67 [J]
Zone,Meter,Electricity:Zone:LOBBY_68 [J]
Zone,Meter,InteriorLights:Electricity:Zone:LOBBY_68 [J]
Zone,Meter,General:InteriorLights:Electricity:Zone:LOBBY_68 [J]
Zone,Meter,Electricity:Zone:CONFERENCE_68 [J]
Zone,Meter,InteriorLights:Electricity:Zone:CONFERENCE_68 [J]
Zone,Meter,General:InteriorLights:Electricity:Zone:CONFERENCE_68 [J]
Zone,Meter,Electricity:Zone:MECHANICAL_68 [J]
Zone,Meter,InteriorLights:Electricity:Zone:MECHANICAL_68 [J]
Zone,Meter,General:InteriorLights:Electricity:Zone:MECHANICAL_68 [J]
Zone,Meter,Electricity:Zone:OFFICE_PRIVATE_68 [J]
Zone,Meter,InteriorLights:Electricity:Zone:OFFICE_PRIVATE_68 [J]
Zone,Meter,General:InteriorLights:Electricity:Zone:OFFICE_PRIVATE_68 [J]
Zone,Meter,Electricity:Zone:LOBBY_69 [J]
Zone,Meter,InteriorLights:Electricity:Zone:LOBBY_69 [J]
Zone,Meter,General:InteriorLights:Electricity:Zone:LOBBY_69 [J]
Zone,Meter,Electricity:Zone:CONFERENCE_69 [J]
Zone,Meter,InteriorLights:Electricity:Zone:CONFERENCE_69 [J]
Zone,Meter,General:InteriorLights:Electricity:Zone:CONFERENCE_69 [J]
Zone,Meter,Electricity:Zone:MECHANICAL_69 [J]
Zone,Meter,InteriorLights:Electricity:Zone:MECHANICAL_69 [J]
Zone,Meter,General:InteriorLights:Electricity:Zone:MECHANICAL_69 [J]
Zone,Meter,Electricity:Zone:OFFICE_OPEN_69 [J]
Zone,Meter,InteriorLights:Electricity:Zone:OFFICE_OPEN_69 [J]
Zone,Meter,General:InteriorLights:Electricity:Zone:OFFICE_OPEN_69 [J]
Zone,Meter,Electricity:Zone:OFFICE_PRIVATE_69 [J]
Zone,Meter,InteriorLights:Electricity:Zone:OFFICE_PRIVATE_69 [J]
Zone,Meter,General:InteriorLights:Electricity:Zone:OFFICE_PRIVATE_69 [J]
Zone,Meter,Electricity:Zone:STORAGE_69 [J]
Zone,Meter,InteriorLights:Electricity:Zone:STORAGE_69 [J]
Zone,Meter,General:InteriorLights:Electricity:Zone:STORAGE_69 [J]
Zone,Meter,Electricity:Zone:LOBBY_70 [J]
Zone,Meter,InteriorLights:Electricity:Zone:LOBBY_70 [J]
Zone,Meter,General:InteriorLights:Electricity:Zone:LOBBY_70 [J]
Zone,Meter,Electricity:Zone:BREAK_ROOM_70 [J]
Zone,Meter,InteriorLights:Electricity:Zone:BREAK_ROOM_70 [J]
Zone,Meter,General:InteriorLights:Electricity:Zone:BREAK_ROOM_70 [J]
Zone,Meter,Electricity:Zone:OFFICE_PRIVATE_70 [J]
Zone,Meter,InteriorLights:Electricity:Zone:OFFICE_PRIVATE_70 [J]
Zone,Meter,General:InteriorLights:Electricity:Zone:OFFICE_PRIVATE_70 [J]
Zone,Meter,Electricity:Zone:STORAGE_70 [J]
Zone,Meter,InteriorLights:Electricity:Zone:STORAGE_70 [J]
Zone,Meter,General:InteriorLights:Electricity:Zone:STORAGE_70 [J]
Zone,Meter,Electricity:Zone:CONFERENCE_71 [J]
Zone,Meter,InteriorLights:Electricity:Zone:CONFERENCE_71 [J]
Zone,Meter,General:InteriorLights:Electricity:Zone:CONFERENCE_71 [J]
Zone,Meter,Electricity:Zone:MECHANICAL_71 [J]
Zone,Meter,InteriorLights:Electricity:Zone:MECHANICAL_71 [J]
Zone,Meter,General:InteriorLights:Electricity:Zone:MECHANICAL_71 [J]
Zone,Meter,Electricity:Zone:OFFICE_PRIVATE_71 [J]
Zone,Meter,InteriorLights:Electricity:Zone:OFFICE_PRIVATE_71 [J]
Zone,Meter,General:InteriorLights:Electricity:Zone:OFFICE_PRIVATE_71 [J]
Zone,Meter,Electricity:Zone:LOBBY_72 [J]
Zone,Meter,InteriorLights:Electricity:Zone:LOBBY_72 [J]
Zone,Meter,General:InteriorLights:Electricity:Zone:LOBBY_72 [J]
Zone,Meter,Electricity:Zone:CONFERENCE_72 [J]
Zone,Meter,InteriorLights:Electricity:Zone:CONFERENCE_72 [J]
Zone,Meter,General:InteriorLights:Electricity:Zone:CONFERENCE_72 [J]
Zone,Meter,Electricity:Zone:BREAK_ROOM_72 [J]
Zone,Meter,InteriorLights:Electricity:Zone:BREAK_ROOM_72 [J]
Zone,Meter,General:InteriorLights:Electricity:Zone:BREAK_ROOM_72 [J]
Zone,Meter,Electricity:Zone:MECHANICAL_72 [J]
Zone,Meter,InteriorLights:Electricity:Zone:MECHANICAL_72 [J]
Zone,Meter,General:InteriorLights:Electricity:Zone:MECHANICAL_72 [J]
Zone,Meter,Electricity:Zone:OFFICE_OPEN_72 [J]
Zone,Meter,InteriorLights:Electricity:Zone:OFFICE_OPEN_72 [J]
Zone,Meter,General:InteriorLights:Electricity:Zone:OFFICE_OPEN_72 [J]
Zone,Meter,Electricity:Zone:BREAK_ROOM_73 [J]
Zone,Meter,InteriorLights:Electricity:Zone:BREAK_ROOM_73 [J]
Zone,Meter,General:InteriorLights:Electricity:Zone:BREAK_ROOM_73 [J]
Zone,Meter,Electricity:Zone:MECHANICAL_73 [J]
Zone,Meter,InteriorLights:Electricity:Zone:MECHANICAL_73 [J]
Zone,Meter,General:InteriorLights:Electricity:Zone:MECHANICAL_73 [J]
Zone,Meter,Electricity:Zone:OFFICE_OPEN_73 [J]
Zone,Meter,InteriorLights:Electricity:Zone:OFFICE_OPEN_73 [J]
Zone,Meter,General:InteriorLights:Electricity:Zone:OFFICE_OPEN_73 [J]
Zone,Meter,Electricity:Zone:OFFICE_PRIVATE_73 [J]
Zone,Meter,InteriorLights:Electricity:Zone:OFFICE_PRIVATE_73 [J]
Zone,Meter,General:InteriorLights:Electricity:Zone:OFFICE_PRIVATE_73 [J]
Zone,Meter,Electricity:Zone:OFFICE_PRIVATE_74 [J]
Zone,Meter,InteriorLights:Electricity:Zone:OFFICE_PRIVATE_74 [J]
Zone,Meter,General:InteriorLights:Electricity:Zone:OFFICE_PRIVATE_74 [J]
Zone,Meter,Electricity:Zone:STORAGE_74 [J]
Zone,Meter,InteriorLights:Electricity:Zone:STORAGE_74 [J]
Zone,Meter,General:InteriorLights:Electricity:Zone:STORAGE_74 [J]
Zone,Meter,Electricity:Zone:LOBBY_75 [J]
Zone,Meter,InteriorLights:Electricity:Zone:LOBBY_75 [J]
Zone,Meter,General:InteriorLights:Electricity:Zone:LOBBY_75 [J]
Zone,Meter,Electricity:Zone:CONFERENCE_75 [J]
Zone,Meter,InteriorLights:Electricity:Zone:CONFERENCE_75 [J]
Zone,Meter,General:InteriorLights:Electricity:Zone:CONFERENCE_75 [J]
Zone,Meter,Electricity:Zone:BREAK_ROOM_75 [J]
Zone,Meter,InteriorLights:Electricity:Zone:BREAK_ROOM_75 [J]
Zone,Meter,General:InteriorLights:Electricity:Zone:BREAK_ROOM_75 [J]
Zone,Meter,Electricity:Zone:MECHANICAL_75 [J]
Zone,Meter,InteriorLights:Electricity:Zone:MECHANICAL_75 [J]
Zone,Meter,General:InteriorLights:Electricity:Zone:MECHANICAL_75 [J]
Zone,Meter,Electricity:Zone:OFFICE_PRIVATE_75 [J]
Zone,Meter,InteriorLights:Electricity:Zone:OFFICE_PRIVATE_75 [J]
Zone,Meter,General:InteriorLights:Electricity:Zone:OFFICE_PRIVATE_75 [J]
Zone,Meter,Electricity:Zone:LOBBY_76 [J]
Zone,Meter,InteriorLights:Electricity:Zone:LOBBY_76 [J]
Zone,Meter,General:InteriorLights:Electricity:Zone:LOBBY_76 [J]
Zone,Meter,Electricity:Zone:CONFERENCE_76 [J]
Zone,Meter,InteriorLights:Electricity:Zone:CONFERENCE_76 [J]
Zone,Meter,General:InteriorLights:Electricity:Zone:CONFERENCE_76 [J]
Zone,Meter,Electricity:Zone:OFFICE_OPEN_76 [J]
Zone,Meter,InteriorLights:Electricity:Zone:OFFICE_OPEN_76 [J]
Zone,Meter,General:InteriorLights:Electricity:Zone:OFFICE_OPEN_76 [J]
Zone,Meter,Electricity:Zone:BREAK_ROOM_77 [J]
Zone,Meter,InteriorLights:Electricity:Zone:BREAK_ROOM_77 [J]
Zone,Meter,General:InteriorLights:Electricity:Zone:BREAK_ROOM_77 [J]
Zone,Meter,Electricity:Zone:MECHANICAL_77 [J]
Zone,Meter,InteriorLights:Electricity:Zone:MECHANICAL_77 [J]
Zone,Meter,General:InteriorLights:Electricity:Zone:MECHANICAL_77 [J]
Zone,Meter,Electricity:Zone:STORAGE_77 [J]
Zone,Meter,InteriorLights:Electricity:Zone:STORAGE_77 [J]
Zone,Meter,General:InteriorLights:Electricity:Zone:STORAGE_77 [J]
Zone,Meter,Electricity:Zone:LOBBY_78 [J]
Zone,Meter,InteriorLights:Electricity:Zone:LOBBY_78 [J]
Zone,Meter,General:InteriorLights:Electricity:Zone:LOBBY_78 [J]
Zone,Meter,Electricity:Zone:BREAK_ROOM_78 [J]
Zone,Meter,InteriorLights:Electricity:Zone:BREAK_ROOM_78 [J]
Zone,Meter,General:InteriorLights:Electricity:Zone:BREAK_ROOM_78 [J]
Zone,Meter,Electricity:Zone:MECHANICAL_78 [J]
Zone,Meter,InteriorLights:Electricity:Zone:MECHANICAL_78 [J]
Zone,Meter,General:InteriorLights:Electricity:Zone:MECHANICAL_78 [J]
Zone,Meter,Electricity:Zone:OFFICE_PRIVATE_78 [J]
Zone,Meter,InteriorLights:Electricity:Zone:OFFICE_PRIVATE_78 [J]
Zone,Meter,General:InteriorLights:Electricity:Zone:OFFICE_PRIVATE_78 [J]
Zone,Meter,Electricity:Zone:LOBBY_79 [J]
Zone,Meter,InteriorLights:Electricity:Zone:LOBBY_79 [J]
Zone,Meter,General:InteriorLights:Electricity:Zone:LOBBY_79 [J]
Zone,Meter,Electricity:Zone:CONFERENCE_79 [J]
Zone,Meter,InteriorLights:Electricity:Zone:CONFERENCE_79 [J]
Zone,Meter,General:InteriorLights:Electricity:Zone:CONFERENCE_79 [J]
Zone,Meter,Electricity:Zone:MECHANICAL_79 [J]
Zone,Meter,InteriorLights:Electricity:Zone:MECHANICAL_79 [J]
Zone,Meter,General:InteriorLights:Electricity:Zone:MECHANICAL_79 [J]
Zone,Meter,Electricity:Zone:OFFICE_PRIVATE_79 [J]
Zone,Meter,InteriorLights:Electricity:Zone:OFFICE_PRIVATE_79 [J]
Zone,Meter,General:InteriorLights:Electricity:Zone:OFFICE_PRIVATE_79 [J]
Zone,Meter,Electricity:Zone:STORAGE_79 [J]
Zone,Meter,InteriorLights:Electricity:Zone:STORAGE_79 [J]
Zone,Meter,General:InteriorLights:Electricity:Zone:STORAGE_79 [J]
Zone,Meter,Electricity:Zone:LOBBY_80 [J]
Zone,Meter,InteriorLights:Electricity:Zone:LOBBY_80 [J]
Zone,Meter,General:InteriorLights:Electricity:Zone:LOBBY_80 [J]
Zone,Meter,Electricity:Zone:BREAK_ROOM_80 [J]
Zone,Meter,InteriorLights:Electricity:Zone:BREAK_ROOM_80 [J]
Zone,Meter,General:InteriorLights:Electricity:Zone:BREAK_ROOM_80 [J]
Zone,Meter,Electricity:Zone:MECHANICAL_80 [J]
Zone,Meter,InteriorLights:Electricity:Zone:MECHANICAL_80 [J]
Zone,Meter,General:InteriorLights:Electricity:Zone:MECHANICAL_80 [J]
Zone,Meter,Electricity:Zone:STORAGE_80 [J]
Zone,Meter,InteriorLights:Electricity:Zone:STORAGE_80 [J]
Zone,Meter,General:InteriorLights:Electricity:Zone:STORAGE_80 [J]
Zone,Meter,Electricity:Zone:LOBBY_81 [J]
Zone,Meter,InteriorLights:Electricity:Zone:LOBBY_81 [J]
Zone,Meter,General:InteriorLights:Electricity:Zone:LOBBY_81 [J]
Zone,Meter,Electricity:Zone:OFFICE_OPEN_81 [J]
Zone,Meter,InteriorLights:Electricity:Zone:OFFICE_OPEN_81 [J]
Zone,Meter,General:InteriorLights:Electricity:Zone:OFFICE_OPEN_81 [J]
Zone,Meter,Electricity:Zone:OFFICE_PRIVATE_81 [J]
Zone,Meter,InteriorLights:Electricity:Zone:OFFICE_PRIVATE_81 [J]
Zone,Meter,General:InteriorLights:Electricity:Zone:OFFICE_PRIVATE_81 [J]
Zone,Meter,Electricity:Zone:STORAGE_81 [J]
Zone,Meter,InteriorLights:Electricity:Zone:STORAGE_81 [J]
Zone,Meter,General:InteriorLights:Electricity:Zone:STORAGE_81 [J]
Zone,Meter,Electricity:Zone:LOBBY_82 [J]
Zone,Meter,InteriorLights:Electricity:Zone:LOBBY_82 [J]
Zone,Meter,General:InteriorLights:Electricity:Zone:LOBBY_82 [J]
Zone,Meter,Electricity:Zone:CONFERENCE_82 [J]
Zone,Meter,InteriorLights:Electricity:Zone:CONFERENCE_82 [J]
Zone,Meter,General:InteriorLights:Electricity:Zone:CONFERENCE_82 [J]
Zone,Meter,Electricity:Zone:BREAK_ROOM_82 [J]
Zone,Meter,InteriorLights:Electricity:Zone:BREAK_ROOM_82 [J]
Zone,Meter,General:InteriorLights:Electricity:Zone:BREAK_ROOM_82 [J]
Zone,Meter,Electricity:Zone:OFFICE_PRIVATE_82 [J]
Zone,Meter,InteriorLights:Electricity:Zone:OFFICE_PRIVATE_82 [J]
Zone,Meter,General:InteriorLights:Electricity:Zone:OFFICE_PRIVATE_82 [J]
Zone,Meter,Electricity:Zone:STORAGE_82 [J]
Zone,Meter,InteriorLights:Electricity:Zone:STORAGE_82 [J]
Zone,Meter,General:InteriorLights:Electricity:Zone:STORAGE_82 [J]
Zone,Meter,Electricity:Zone:LOBBY_83 [J]
Zone,Meter,InteriorLights:Electricity:Zone:LOBBY_83 [J]
Zone,Meter,General:InteriorLights:Electricity:Zone:LOBBY_83 [J]
Zone,Meter,Electricity:Zone:CONFERENCE_83 [J]
Zone,Meter,InteriorLights:Electricity:Zone:CONFERENCE_83 [J]
Zone,Meter,General:InteriorLights:Electricity:Zone:CONFERENCE_83 [J]
Zone,Meter,Electricity:Zone:OFFICE_OPEN_83 [J]
Zone,Meter,InteriorLights:Electricity:Zone:OFFICE_OPEN_83 [J]
Zone,Meter,General:InteriorLights:Electricity:Zone:OFFICE_OPEN_83 [J]
Zone,Meter,Electricity:Zone:OFFICE_PRIVATE_83 [J]
Zone,Meter,InteriorLights:Electricity:Zone:OFFICE_PRIVATE_83 [J]
Zone,Meter,General:InteriorLights:Electricity:Zone:OFFICE_PRIVATE_83 [J]
Zone,Meter,Electricity:Zone:STORAGE_83 [J]
Zone,Meter,InteriorLights:Electricity:Zone:STORAGE_83 [J]
Zone,Meter,General:InteriorLights:Electricity:Zone:STORAGE_83 [J]
Zone,Meter,Electricity:Zone:BREAK_ROOM_84 [J]
Zone,Meter,InteriorLights:Electricity:Zone:BREAK_ROOM_84 [J]
Zone,Meter,General:InteriorLights:Electricity:Zone:BREAK_ROOM_84 [J]
Zone,Meter,Electricity:Zone:OFFICE_PRIVATE_84 [J]
Zone,Meter,InteriorLights:Electricity:Zone:OFFICE_PRIVATE_84 [J]
Zone,Meter,General:InteriorLights:Electricity:Zone:OFFICE_PRIVATE_84 [J]
Zone,Meter,Electricity:Zone:BREAK_ROOM_85 [J]
Zone,Meter,InteriorLights:Electricity:Zone:BREAK_ROOM_85 [J]
Zone,Meter,General:InteriorLights:Electricity:Zone:BREAK_ROOM_85 [J]
Zone,Meter,Electricity:Zone:MECHANICAL_85 [J]
Zone,Meter,InteriorLights:Electricity:Zone:MECHANICAL_85 [J]
Zone,Meter,General:InteriorLights:Electricity:Zone:MECHANICAL_85 [J]
Zone,Meter,Electricity:Zone:OFFICE_OPEN_85 [J]
Zone,Meter,InteriorLights:Electricity:Zone:OFFICE_OPEN_85 [J]
Zone,Meter,General:InteriorLights:Electricity:Zone:OFFICE_OPEN_85 [J]
Zone,Meter,Electricity:Zone:CONFERENCE_86 [J]
Zone,Meter,InteriorLights:Electricity:Zone:CONFERENCE_86 [J]
Zone,Meter,General:InteriorLights:Electricity:Zone:CONFERENCE_86 [J]
Zone,Meter,Electricity:Zone:MECHANICAL_86 [J]
Zone,Meter,InteriorLights:Electricity:Zone:MECHANICAL_86 [J]
Zone,Meter,General:InteriorLights:Electricity:Zone:MECHANICAL_86 [J]
Zone,Meter,Electricity:Zone:OFFICE_PRIVATE_86 [J]
Zone,Meter,InteriorLights:Electricity:Zone:OFFICE_PRIVATE_86 [J]
Zone,Meter,General:InteriorLights:Electricity:Zone:OFFICE_PRIVATE_86 [J]
Zone,Meter,Electricity:Zone:MECHANICAL_87 [J]
Zone,Meter,InteriorLights:Electricity:Zone:MECHANICAL_87 [J]
Zone,Meter,General:InteriorLights:Electricity:Zone:MECHANICAL_87 [J]
Zone,Meter,Electricity:Zone:LOBBY_88 [J]
Zone,Meter,InteriorLights:Electricity:Zone:LOBBY_88 [J]
Zone,Meter,General:InteriorLights:Electricity:Zone:LOBBY_88 [J]
Zone,Meter,Electricity:Zone:CONFERENCE_88 [J]
Zone,Meter,InteriorLights:Electricity:Zone:CONFERENCE_88 [J]
Zone,Meter,General:InteriorLights:Electricity:Zone:CONFERENCE_88 [J]
Zone,Meter,Electricity:Zone:BREAK_ROOM_88 [J]
Zone,Meter,InteriorLights:Electricity:Zone:BREAK_ROOM_88 [J]
Zone,Meter,General:InteriorLights:Electricity:Zone:BREAK_ROOM_88 [J]
Zone,Meter,Electricity:Zone:STORAGE_88 [J]
Zone,Meter,InteriorLights:Electricity:Zone:STORAGE_88 [J]
Zone,Meter,General:InteriorLights:Electricity:Zone:STORAGE_88 [J]
Zone,Meter,Electricity:Zone:BREAK_ROOM_89 [J]
Zone,Meter,InteriorLights:Electricity:Zone:BREAK_ROOM_89 [J]
Zone,Meter,General:InteriorLights:Electricity:Zone:BREAK_ROOM_89 [J]
Zone,Meter,Electricity:Zone:OFFICE_PRIVATE_89 [J]
Zone,Meter,InteriorLights:Electricity:Zone:OFFICE_PRIVATE_89 [J]
Zone,Meter,General:InteriorLights:Electricity:Zone:OFFICE_PRIVATE_89 [J]
Zone,Meter,Electricity:Zone:BREAK_ROOM_90 [J]
Zone,Meter,InteriorLights:Electricity:Zone:BREAK_ROOM_90 [J]
Zone,Meter,General:InteriorLights:Electricity:Zone:BREAK_ROOM_90 [J]
Zone,Meter,Electricity:Zone:OFFICE_PRIVATE_90 [J]
Zone,Meter,InteriorLights:Electricity:Zone:OFFICE_PRIVATE_90 [J]
Zone,Meter,General:InteriorLights:Electricity:Zone:OFFICE_PRIVATE_90 [J]
Zone,Meter,Electricity:Zone:STORAGE_90 [J]
Zone,Meter,InteriorLights:Electricity:Zone:STORAGE_90 [J]
Zone,Meter,General:InteriorLights:Electricity:Zone:STORAGE_90 [J]
Zone,Meter,Electricity:Zone:BREAK_ROOM_91 [J]
Zone,Meter,InteriorLights:Electricity:Zone:BREAK_ROOM_91 [J]
Zone,Meter,General:InteriorLights:Electricity:Zone:BREAK_ROOM_91 [J]
Zone,Meter,Electricity:Zone:STORAGE_91 [J]
Zone,Meter,InteriorLights:Electricity:Zone:STORAGE_91 [J]
Zone,Meter,General:InteriorLights:Electricity:Zone:STORAGE_91 [J]
Zone,Meter,Electricity:Zone:LOBBY_92 [J]
Zone,Meter,InteriorLights:Electricity:Zone:LOBBY_92 [J]
Zone,Meter,General:InteriorLights:Electricity:Zone:LOBBY_92 [J]
Zone,Meter,Electricity:Zone:CONFERENCE_92 [J]
Zone,Meter,InteriorLights:Electricity:Zone:CONFERENCE_92 [J]
Zone,Meter,General:InteriorLights:Electricity:Zone:CONFERENCE_92 [J]
Zone,Meter,Electricity:Zone:BREAK_ROOM_92 [J]
Zone,Meter,InteriorLights:Electricity:Zone:BREAK_ROOM_92 [J]
Zone,Meter,General:InteriorLights:Electricity:Zone:BREAK_ROOM_92 [J]
Zone,Meter,Electricity:Zone:STORAGE_92 [J]
Zone,Meter,InteriorLights:Electricity:Zone:STORAGE_92 [J]
Zone,Meter,General:InteriorLights:Electricity:Zone:STORAGE_92 [J]
Zone,Meter,Electricity:Zone:LOBBY_93 [J]
Zone,Meter,InteriorLights:Electricity:Zone:LOBBY_93 [J]
Zone,Meter,General:InteriorLights:Electricity:Zone:LOBBY_93 [J]
Zone,Meter,Electricity:Zone:CONFERENCE_93 [J]
Zone,Meter,InteriorLights:Electricity:Zone:CONFERENCE_93 [J]
Zone,Meter,General:InteriorLights:Electricity:Zone:CONFERENCE_93 [J]
Zone,Meter,Electricity:Zone:MECHANICAL_93 [J]
Zone,Meter,InteriorLights:Electricity:Zone:MECHANICAL_93 [J]
Zone,Meter,General:InteriorLights:Electricity:Zone:MECHANICAL_93 [J]
Zone,Meter,Electricity:Zone:STORAGE_93 [J]
Zone,Meter,InteriorLights:Electricity:Zone:STORAGE_93 [J]
Zone,Meter,General:InteriorLights:Electricity:Zone:STORAGE_93 [J]
Zone,Meter,Electricity:Zone:MECHANICAL_94 [J]
Zone,Meter,InteriorLights:Electricity:Zone:MECHANICAL_94 [J]
Zone,Meter,General:InteriorLights:Electricity:Zone:MECHANICAL_94 [J]
Zone,Meter,Electricity:Zone:LOBBY_95 [J]
Zone,Meter,InteriorLights:Electricity:Zone:LOBBY_95 [J]
Zone,Meter,General:InteriorLights:Electricity:Zone:LOBBY_95 [J]
Zone,Meter,Electricity:Zone:CONFERENCE_95 [J]
Zone,Meter,InteriorLights:Electricity:Zone:CONFERENCE_95 [J]
Zone,Meter,General:InteriorLights:Electricity:Zone:CONFERENCE_95 [J]
Zone,Meter,Electricity:Zone:BREAK_ROOM_95 [J]
Zone,Meter,InteriorLights:Electricity:Zone:BREAK_ROOM_95 [J]
Zone,Meter,General:InteriorLights:Electricity:Zone:BREAK_ROOM_95 [J]
Zone,Meter,Electricity:Zone:OFFICE_OPEN_95 [J]
Zone,Meter,InteriorLights:Electricity:Zone:OFFICE_OPEN_95 [J]
Zone,Meter,General:InteriorLights:Electricity:Zone:OFFICE_OPEN_95 [J]
Zone,Meter,Electricity:Zone:STORAGE_95 [J]
Zone,Meter,InteriorLights:Electricity:Zone:STORAGE_95 [J]
Zone,Meter,General:InteriorLights:Electricity:Zone:STORAGE_95 [J]
Zone,Meter,Electricity:Zone:CONFERENCE_96 [J]
Zone,Meter,InteriorLights:Electricity:Zone:CONFERENCE_96 [J]
Zone,Meter,General:InteriorLights:Electricity:Zone:CONFERENCE_96 [J]
Zone,Meter,Electricity:Zone:BREAK_ROOM_96 [J]
Zone,Meter,InteriorLights:Electricity:Zone:BREAK_ROOM_96 [J]
Zone,Meter,General:InteriorLights:Electricity:Zone:BREAK_ROOM_96 [J]
Zone,Meter,Electricity:Zone:MECHANICAL_96 [J]
Zone,Meter,InteriorLights:Electricity:Zone:MECHANICAL_96 [J]
Zone,Meter,General:InteriorLights:Electricity:Zone:MECHANICAL_96 [J]
Zone,Meter,Electricity:Zone:OFFICE_PRIVATE_96 [J]
Zone,Meter,InteriorLights:Electricity:Zone:OFFICE_PRIVATE_96 [J]
Zone,Meter,General:InteriorLights:Electricity:Zone:OFFICE_PRIVATE_96 [J]
Zone,Meter,Electricity:Zone:STORAGE_96 [J]
Zone,Meter,InteriorLights:Electricity:Zone:STORAGE_96 [J]
Zone,Meter,General:InteriorLights:Electricity:Zone:STORAGE_96 [J]
Zone,Meter,Electricity:Zone:CONFERENCE_97 [J]
Zone,Meter,InteriorLights:Electricity:Zone:CONFERENCE_97 [J]
Zone,Meter,General:InteriorLights:Electricity:Zone:CONFERENCE_97 [J]
Zone,Meter,Electricity:Zone:BREAK_ROOM_97 [J]
Zone,Meter,InteriorLights:Electricity:Zone:BREAK_ROOM_97 [J]
Zone,Meter,General:InteriorLights:Electricity:Zone:BREAK_ROOM_97 [J]
Zone,Meter,Electricity:Zone:OFFICE_PRIVATE_97 [J]
Zone,Meter,InteriorLights:Electricity:Zone:OFFICE_PRIVATE_97 [J]
Zone,Meter,General:InteriorLights:Electricity:Zone:OFFICE_PRIVATE_97 [J]
Zone,Meter,Electricity:Zone:CONFERENCE_98 [J]
Zone,Meter,InteriorLights:Electricity:Zone:CONFERENCE_98 [J]
Zone,Meter,General:InteriorLights:Electricity:Zone:CONFERENCE_98 [J]
Zone,Meter,Electricity:Zone:BREAK_ROOM_98 [J]
Zone,Meter,InteriorLights:Electricity:Zone:BREAK_ROOM_98 [J]
Zone,Meter,General:InteriorLights:Electricity:Zone:BREAK_ROOM_98 [J]
Zone,Meter,Electricity:Zone:OFFICE_OPEN_98 [J]
Zone,Meter,InteriorLights:Electricity:Zone:OFFICE_OPEN_98 [J]
Zone,Meter,General:InteriorLights:Electricity:Zone:OFFICE_OPEN_98 [J]
Zone,Meter,Electricity:Zone:STORAGE_98 [J]
Zone,Meter,InteriorLights:Electricity:Zone:STORAGE_98 [J]
Zone,Meter,General:InteriorLights:Electricity:Zone:STORAGE_98 [J]
Zone,Meter,Electricity:Zone:LOBBY_99 [J]
Zone,Meter,InteriorLights:Electricity:Zone:LOBBY_99 [J]
Zone,Meter,General:InteriorLights:Electricity:Zone:LOBBY_99 [J]
Zone,Meter,Electricity:Zone:CONFERENCE_99 [J]
Zone,Meter,InteriorLights:Electricity:Zone:CONFERENCE_99 [J]
Zone,Meter,General:InteriorLights:Electricity:Zone:CONFERENCE_99 [J]
Zone,Meter,Electricity:Zone:BREAK_ROOM_99 [J]
Zone,Meter,InteriorLights:Electricity:Zone:BREAK_ROOM_99 [J]
Zone,Meter,General:InteriorLights:Electricity:Zone:BREAK_ROOM_99 [J]
Zone,Meter,Electricity:Zone:OFFICE_OPEN_99 [J]
Zone,Meter,InteriorLights:Electricity:Zone:OFFICE_OPEN_99 [J]
Zone,Meter,General:InteriorLights:Electricity:Zone:OFFICE_OPEN_99 [J]
Zone,Meter,Electricity:Zone:STORAGE_99 [J]
Zone,Meter,InteriorLights:Electricity:Zone:STORAGE_99 [J]
Zone,Meter,General:InteriorLights:Electricity:Zone:STORAGE_99 [J]
Zone,Meter,Electricity:Zone:CONFERENCE_100 [J]
Zone,Meter,InteriorLights:Electricity:Zone:CONFERENCE_100 [J]
Zone,Meter,General:InteriorLights:Electricity:Zone:CONFERENCE_100 [J]
Zone,Meter,Electricity:Zone:BREAK_ROOM_100 [J]
Zone,Meter,InteriorLights:Electricity:Zone:BREAK_ROOM_100 [J]
Zone,Meter,General:InteriorLights:Electricity:Zone:BREAK_ROOM_100 [J]
Zone,Meter,Electricity:Zone:MECHANICAL_100 [J]
Zone,Meter,InteriorLights:Electricity:Zone:MECHANICAL_100 [J]
Zone,Meter,General:InteriorLights:Electricity:Zone:MECHANICAL_100 [J]
Zone,Meter,Electricity:Zone:LOBBY_101 [J]
Zone,Meter,InteriorLights:Electricity:Zone:LOBBY_101 [J]
Zone,Meter,General:InteriorLights:Electricity:Zone:LOBBY_101 [J]
Zone,Meter,Electricity:Zone:BREAK_ROOM_101 [J]
Zone,Meter,InteriorLights:Electricity:Zone:BREAK_ROOM_101 [J]
Zone,Meter,General:InteriorLights:Electricity:Zone:BREAK_ROOM_101 [J]
Zone,Meter,Electricity:Zone:OFFICE_OPEN_101 [J]
Zone,Meter,InteriorLights:Electricity:Zone:OFFICE_OPEN_101 [J]
Zone,Meter,General:InteriorLights:Electricity:Zone:OFFICE_OPEN_101 [J]
Zone,Meter,Electricity:Zone:OFFICE_PRIVATE_101 [J]
Zone,Meter,InteriorLights:Electricity:Zone:OFFICE_PRIVATE_101 [J]
Zone,Meter,General:InteriorLights:Electricity:Zone:OFFICE_PRIVATE_101 [J]
Zone,Meter,Electricity:Zone:STORAGE_101 [J]
Zone,Meter,InteriorLights:Electricity:Zone:STORAGE_101 [J]
Zone,Meter,General:InteriorLights:Electricity:Zone:STORAGE_101 [J]
Zone,Meter,Electricity:Zone:LOBBY_102 [J]
Zone,Meter,InteriorLights:Electricity:Zone:LOBBY_102 [J]
Zone,Meter,General:InteriorLights:Electricity:Zone:LOBBY_102 [J]
Zone,Meter,Electricity:Zone:BREAK_ROOM_102 [J]
Zone,Meter,InteriorLights:Electricity:Zone:BREAK_ROOM_102 [J]
Zone,Meter,General:InteriorLights:Electricity:Zone:BREAK_ROOM_102 [J]
Zone,Meter,Electricity:Zone:LOBBY_103 [J]
Zone,Meter,InteriorLights:Electricity:Zone:LOBBY_103 [J]
Zone,Meter,General:InteriorLights:Electricity:Zone:LOBBY_103 [J]
Zone,Meter,Electricity:Zone:BREAK_ROOM_103 [J]
Zone,Meter,InteriorLights:Electricity:Zone:BREAK_ROOM_103 [J]
Zone,Meter,General:InteriorLights:Electricity:Zone:BREAK_ROOM_103 [J]
Zone,Meter,Electricity:Zone:MECHANICAL_103 [J]
Zone,Meter,InteriorLights:Electricity:Zone:MECHANICAL_103 [J]
Zone,Meter,General:InteriorLights:Electricity:Zone:MECHANICAL_103 [J]
Zone,Meter,Electricity:Zone:OFFICE_PRIVATE_103 [J]
Zone,Meter,InteriorLights:Electricity:Zone:OFFICE_PRIVATE_103 [J]
Zone,Meter,General:InteriorLights:Electricity:Zone:OFFICE_PRIVATE_103 [J]
Zone,Meter,Electricity:Zone:STORAGE_103 [J]
Zone,Meter,InteriorLights:Electricity:Zone:STORAGE_103 [J]
Zone,Meter,General:InteriorLights:Electricity:Zone:STORAGE_103 [J]
Zone,Meter,InteriorEquipment:Electricity [J]
Zone,Meter,InteriorEquipment:Electricity:Zone:LOBBY_0 [J]
Zone,Meter,InteriorEquipment:Electricity:SpaceType:GENERAL [J]
Zone,Meter,General:InteriorEquipment:Electricity [J]
Zone,Meter,General:InteriorEquipment:Electricity:Zone:LOBBY_0 [J]
Zone,Meter,General:InteriorEquipment:Electricity:SpaceType:GENERAL [J]
Zone,Meter,InteriorEquipment:Electricity:Zone:MECHANICAL_0 [J]
Zone,Meter,General:InteriorEquipment:Electricity:Zone:MECHANICAL_0 [J]
Zone,Meter,InteriorEquipment:Electricity:Zone:OFFICE_OPEN_0 [J]
Zone,Meter,General:InteriorEquipment:Electricity:Zone:OFFICE_OPEN_0 [J]
Zone,Meter,InteriorEquipment:Electricity:Zone:LOBBY_1 [J]
Zone,Meter,General:InteriorEquipment:Electricity:Zone:LOBBY_1 [J]
Zone,Meter,InteriorEquipment:Electricity:Zone:CONFERENCE_1 [J]
Zone,Meter,General:InteriorEquipment:Electricity:Zone:CONFERENCE_1 [J]
Zone,Meter,InteriorEquipment:Electricity:Zone:MECHANICAL_1 [J]
Zone,Meter,General:InteriorEquipment:Electricity:Zone:MECHANICAL_1 [J]
Zone,Meter,InteriorEquipment:Electricity:Zone:LOBBY_2 [J]
Zone,Meter,General:InteriorEquipment:Electricity:Zone:LOBBY_2 [J]
Zone,Meter,InteriorEquipment:Electricity:Zone:CONFERENCE_2 [J]
Zone,Meter,General:InteriorEquipment:Electricity:Zone:CONFERENCE_2 [J]
Zone,Meter,InteriorEquipment:Electricity:Zone:BREAK_ROOM_2 [J]
Zone,Meter,General:InteriorEquipment:Electricity:Zone:BREAK_ROOM_2 [J]
Zone,Meter,InteriorEquipment:Electricity:Zone:MECHANICAL_2 [J]
Zone,Meter,General:InteriorEquipment:Electricity:Zone:MECHANICAL_2 [J]
Zone,Meter,InteriorEquipment:Electricity:Zone:OFFICE_OPEN_2 [J]
Zone,Meter,General:InteriorEquipment:Electricity:Zone:OFFICE_OPEN_2 [J]
Zone,Meter,InteriorEquipment:Electricity:Zone:OFFICE_PRIVATE_2 [J]
Zone,Meter,General:InteriorEquipment:Electricity:Zone:OFFICE_PRIVATE_2 [J]
Zone,Meter,InteriorEquipment:Electricity:Zone:LOBBY_3 [J]
Zone,Meter,General:InteriorEquipment:Electricity:Zone:LOBBY_3 [J]
Zone,Meter,InteriorEquipment:Electricity:Zone:CONFERENCE_3 [J]
Zone,Meter,General:InteriorEquipment:Electricity:Zone:CONFERENCE_3 [J]
Zone,Meter,InteriorEquipment:Electricity:Zone:OFFICE_PRIVATE_3 [J]
Zone,Meter,General:InteriorEquipment:Electricity:Zone:OFFICE_PRIVATE_3 [J]
Zone,Meter,InteriorEquipment:Electricity:Zone:STORAGE_3 [J]
Zone,Meter,General:InteriorEquipment:Electricity:Zone:STORAGE_3 [J]
Zone,Meter,InteriorEquipment:Electricity:Zone:LOBBY_4 [J]
Zone,Meter,General:InteriorEquipment:Electricity:Zone:LOBBY_4 [J]
Zone,Meter,InteriorEquipment:Electricity:Zone:CONFERENCE_4 [J]
Zone,Meter,General:InteriorEquipment:Electricity:Zone:CONFERENCE_4 [J]
Zone,Meter,InteriorEquipment:Electricity:Zone:BREAK_ROOM_4 [J]
Zone,Meter,General:InteriorEquipment:Electricity:Zone:BREAK_ROOM_4 [J]
Zone,Meter,InteriorEquipment:Electricity:Zone:MECHANICAL_4 [J]
Zone,Meter,General:InteriorEquipment:Electricity:Zone:MECHANICAL_4 [J]
Zone,Meter,InteriorEquipment:Electricity:Zone:OFFICE_OPEN_4 [J]
Zone,Meter,General:InteriorEquipment:Electricity:Zone:OFFICE_OPEN_4 [J]
Zone,Meter,InteriorEquipment:Electricity:Zone:OFFICE_PRIVATE_4 [J]
Zone,Meter,General:InteriorEquipment:Electricity:Zone:OFFICE_PRIVATE_4 [J]
Zone,Meter,InteriorEquipment:Electricity:Zone:STORAGE_4 [J]
Zone,Meter,General:InteriorEquipment:Electricity:Zone:STORAGE_4 [J]
Zone,Meter,InteriorEquipment:Electricity:Zone:LOBBY_5 [J]
Zone,Meter,General:InteriorEquipment:Electricity:Zone:LOBBY_5 [J]
Zone,Meter,InteriorEquipment:Electricity:Zone:CONFERENCE_5 [J]
Zone,Meter,General:InteriorEquipment:Electricity:Zone:CONFERENCE_5 [J]
Zone,Meter,InteriorEquipment:Electricity:Zone:BREAK_ROOM_5 [J]
Zone,Meter,General:InteriorEquipment:Electricity:Zone:BREAK_ROOM_5 [J]
Zone,Meter,InteriorEquipment:Electricity:Zone:STORAGE_5 [J]
Zone,Meter,General:InteriorEquipment:Electricity:Zone:STORAGE_5 [J]
Zone,Meter,InteriorEquipment:Electricity:Zone:LOBBY_6 [J]
Zone,Meter,General:InteriorEquipment:Electricity:Zone:LOBBY_6 [J]
Zone,Meter,InteriorEquipment:Electricity:Zone:CONFERENCE_6 [J]
Zone,Meter,General:InteriorEquipment:Electricity:Zone:CONFERENCE_6 [J]
Zone,Meter,InteriorEquipment:Electricity:Zone:BREAK_ROOM_6 [J]
Zone,Meter,General:InteriorEquipment:Electricity:Zone:BREAK_ROOM_6 [J]
Zone,Meter,InteriorEquipment:Electricity:Zone:OFFICE_PRIVATE_6 [J]
Zone,Meter,General:InteriorEquipment:Electricity:Zone:OFFICE_PRIVATE_6 [J]
Zone,Meter,InteriorEquipment:Electricity:Zone:STORAGE_6 [J]
Zone,Meter,General:InteriorEquipment:Electricity:Zone:STORAGE_6 [J]
Zone,Meter,InteriorEquipment:Electricity:Zone:LOBBY_7 [J]
Zone,Meter,General:InteriorEquipment:Electricity:Zone:LOBBY_7 [J]
Zone,Meter,InteriorEquipment:Electricity:Zone:CONFERENCE_7 [J]
Zone,Meter,General:InteriorEquipment:Electricity:Zone:CONFERENCE_7 [J]
Zone,Meter,InteriorEquipment:Electricity:Zone:MECHANICAL_7 [J]
Zone,Meter,General:InteriorEquipment:Electricity:Zone:MECHANICAL_7 [J]
Zone,Meter,InteriorEquipment:Electricity:Zone:STORAGE_7 [J]
Zone,Meter,General:InteriorEquipment:Electricity:Zone:STORAGE_7 [J]
Zone,Meter,InteriorEquipment:Electricity:Zone:BREAK_ROOM_8 [J]
Zone,Meter,General:InteriorEquipment:Electricity:Zone:BREAK_ROOM_8 [J]
Zone,Meter,InteriorEquipment:Electricity:Zone:OFFICE_OPEN_8 [J]
Zone,Meter,General:InteriorEquipment:Electricity:Zone:OFFICE_OPEN_8 [J]
Zone,Meter,InteriorEquipment:Electricity:Zone:OFFICE_PRIVATE_8 [J]
Zone,Meter,General:InteriorEquipment:Electricity:Zone:OFFICE_PRIVATE_8 [J]
Zone,Meter,InteriorEquipment:Electricity:Zone:STORAGE_8 [J]
Zone,Meter,General:InteriorEquipment:Electricity:Zone:STORAGE_8 [J]
Zone,Meter,InteriorEquipment:Electricity:Zone:STORAGE_9 [J]
Zone,Meter,General:InteriorEquipment:Electricity:Zone:STORAGE_9 [J]
Zone,Meter,InteriorEquipment:Electricity:Zone:CONFERENCE_10 [J]
Zone,Meter,General:InteriorEquipment:Electricity:Zone:CONFERENCE_10 [J]
Zone,Meter,InteriorEquipment:Electricity:Zone:OFFICE_PRIVATE_10 [J]
Zone,Meter,General:InteriorEquipment:Electricity:Zone:OFFICE_PRIVATE_10 [J]
Zone,Meter,InteriorEquipment:Electricity:Zone:STORAGE_10 [J]
Zone,Meter,General:InteriorEquipment:Electricity:Zone:STORAGE_10 [J]
Zone,Meter,InteriorEquipment:Electricity:Zone:CONFERENCE_11 [J]
Zone,Meter,General:InteriorEquipment:Electricity:Zone:CONFERENCE_11 [J]
Zone,Meter,InteriorEquipment:Electricity:Zone:BREAK_ROOM_11 [J]
Zone,Meter,General:InteriorEquipment:Electricity:Zone:BREAK_ROOM_11 [J]
Zone,Meter,InteriorEquipment:Electricity:Zone:LOBBY_12 [J]
Zone,Meter,General:InteriorEquipment:Electricity:Zone:LOBBY_12 [J]
Zone,Meter,InteriorEquipment:Electricity:Zone:CONFERENCE_12 [J]
Zone,Meter,General:InteriorEquipment:Electricity:Zone:CONFERENCE_12 [J]
Zone,Meter,InteriorEquipment:Electricity:Zone:MECHANICAL_12 [J]
Zone,Meter,General:InteriorEquipment:Electricity:Zone:MECHANICAL_12 [J]
Zone,Meter,InteriorEquipment:Electricity:Zone:STORAGE_12 [J]
Zone,Meter,General:InteriorEquipment:Electricity:Zone:STORAGE_12 [J]
Zone,Meter,InteriorEquipment:Electricity:Zone:LOBBY_13 [J]
Zone,Meter,General:InteriorEquipment:Electricity:Zone:LOBBY_13 [J]
Zone,Meter,InteriorEquipment:Electricity:Zone:CONFERENCE_13 [J]
Zone,Meter,General:InteriorEquipment:Electricity:Zone:CONFERENCE_13 [J]
Zone,Meter,InteriorEquipment:Electricity:Zone:OFFICE_PRIVATE_13 [J]
Zone,Meter,General:InteriorEquipment:Electricity:Zone:OFFICE_PRIVATE_13 [J]
Zone,Meter,InteriorEquipment:Electricity:Zone:STORAGE_13 [J]
Zone,Meter,General:InteriorEquipment:Electricity:Zone:STORAGE_13 [J]
Zone,Meter,InteriorEquipment:Electricity:Zone:CONFERENCE_14 [J]
Zone,Meter,General:InteriorEquipment:Electricity:Zone:CONFERENCE_14 [J]
Zone,Meter,InteriorEquipment:Electricity:Zone:BREAK_ROOM_14 [J]
Zone,Meter,General:InteriorEquipment:Electricity:Zone:BREAK_ROOM_14 [J]
Zone,Meter,InteriorEquipment:Electricity:Zone:MECHANICAL_14 [J]
Zone,Meter,General:InteriorEquipment:Electricity:Zone:MECHANICAL_14 [J]
Zone,Meter,InteriorEquipment:Electricity:Zone:OFFICE_OPEN_14 [J]
Zone,Meter,General:InteriorEquipment:Electricity:Zone:OFFICE_OPEN_14 [J]
Zone,Meter,InteriorEquipment:Electricity:Zone:OFFICE_PRIVATE_14 [J]
Zone,Meter,General:InteriorEquipment:Electricity:Zone:OFFICE_PRIVATE_14 [J]
Zone,Meter,InteriorEquipment:Electricity:Zone:CONFERENCE_15 [J]
Zone,Meter,General:InteriorEquipment:Electricity:Zone:CONFERENCE_15 [J]
Zone,Meter,InteriorEquipment:Electricity:Zone:OFFICE_PRIVATE_15 [J]
Zone,Meter,General:InteriorEquipment:Electricity:Zone:OFFICE_PRIVATE_15 [J]
Zone,Meter,InteriorEquipment:Electricity:Zone:CONFERENCE_16 [J]
Zone,Meter,General:InteriorEquipment:Electricity:Zone:CONFERENCE_16 [J]
Zone,Meter,InteriorEquipment:Electricity:Zone:BREAK_ROOM_16 [J]
Zone,Meter,General:InteriorEquipment:Electricity:Zone:BREAK_ROOM_16 [J]
Zone,Meter,InteriorEquipment:Electricity:Zone:OFFICE_PRIVATE_16 [J]
Zone,Meter,General:InteriorEquipment:Electricity:Zone:OFFICE_PRIVATE_16 [J]
Zone,Meter,InteriorEquipment:Electricity:Zone:CONFERENCE_17 [J]
Zone,Meter,General:InteriorEquipment:Electricity:Zone:CONFERENCE_17 [J]
Zone,Meter,InteriorEquipment:Electricity:Zone:BREAK_ROOM_17 [J]
Zone,Meter,General:InteriorEquipment:Electricity:Zone:BREAK_ROOM_17 [J]
Zone,Meter,InteriorEquipment:Electricity:Zone:MECHANICAL_17 [J]
Zone,Meter,General:InteriorEquipment:Electricity:Zone:MECHANICAL_17 [J]
Zone,Meter,InteriorEquipment:Electricity:Zone:OFFICE_OPEN_17 [J]
Zone,Meter,General:InteriorEquipment:Electricity:Zone:OFFICE_OPEN_17 [J]
Zone,Meter,InteriorEquipment:Electricity:Zone:STORAGE_17 [J]
Zone,Meter,General:InteriorEquipment:Electricity:Zone:STORAGE_17 [J]
Zone,Meter,InteriorEquipment:Electricity:Zone:BREAK_ROOM_18 [J]
Zone,Meter,General:InteriorEquipment:Electricity:Zone:BREAK_ROOM_18 [J]
Zone,Meter,InteriorEquipment:Electricity:Zone:MECHANICAL_18 [J]
Zone,Meter,General:InteriorEquipment:Electricity:Zone:MECHANICAL_18 [J]
Zone,Meter,InteriorEquipment:Electricity:Zone:OFFICE_PRIVATE_18 [J]
Zone,Meter,General:InteriorEquipment:Electricity:Zone:OFFICE_PRIVATE_18 [J]
Zone,Meter,InteriorEquipment:Electricity:Zone:CONFERENCE_19 [J]
Zone,Meter,General:InteriorEquipment:Electricity:Zone:CONFERENCE_19 [J]
Zone,Meter,InteriorEquipment:Electricity:Zone:MECHANICAL_19 [J]
Zone,Meter,General:InteriorEquipment:Electricity:Zone:MECHANICAL_19 [J]
Zone,Meter,InteriorEquipment:Electricity:Zone:OFFICE_PRIVATE_19 [J]
Zone,Meter,General:InteriorEquipment:Electricity:Zone:OFFICE_PRIVATE_19 [J]
Zone,Meter,InteriorEquipment:Electricity:Zone:LOBBY_20 [J]
Zone,Meter,General:InteriorEquipment:Electricity:Zone:LOBBY_20 [J]
Zone,Meter,InteriorEquipment:Electricity:Zone:CONFERENCE_20 [J]
Zone,Meter,General:InteriorEquipment:Electricity:Zone:CONFERENCE_20 [J]
Zone,Meter,InteriorEquipment:Electricity:Zone:BREAK_ROOM_20 [J]
Zone,Meter,General:InteriorEquipment:Electricity:Zone:BREAK_ROOM_20 [J]
Zone,Meter,InteriorEquipment:Electricity:Zone:MECHANICAL_20 [J]
Zone,Meter,General:InteriorEquipment:Electricity:Zone:MECHANICAL_20 [J]
Zone,Meter,InteriorEquipment:Electricity:Zone:OFFICE_OPEN_20 [J]
Zone,Meter,General:InteriorEquipment:Electricity:Zone:OFFICE_OPEN_20 [J]
Zone,Meter,InteriorEquipment:Electricity:Zone:OFFICE_PRIVATE_20 [J]
Zone,Meter,General:InteriorEquipment:Electricity:Zone:OFFICE_PRIVATE_20 [J]
Zone,Meter,InteriorEquipment:Electricity:Zone:CONFERENCE_21 [J]
Zone,Meter,General:InteriorEquipment:Electricity:Zone:CONFERENCE_21 [J]
Zone,Meter,InteriorEquipment:Electricity:Zone:BREAK_ROOM_21 [J]
Zone,Meter,General:InteriorEquipment:Electricity:Zone:BREAK_ROOM_21 [J]
Zone,Meter,InteriorEquipment:Electricity:Zone:MECHANICAL_21 [J]
Zone,Meter,General:InteriorEquipment:Electricity:Zone:MECHANICAL_21 [J]
Zone,Meter,InteriorEquipment:Electricity:Zone:OFFICE_OPEN_21 [J]
[...]
Zone,Meter,EnergyTransfer:Zone:OFFICE_PRIVATE_84 [J]
Zone,Meter,Heating:EnergyTransfer:Zone:OFFICE_PRIVATE_84 [J]
Zone,Meter,General:Heating:EnergyTransfer:Zone:OFFICE_PRIVATE_84 [J]
Zone,Meter,Cooling:EnergyTransfer:Zone:OFFICE_PRIVATE_84 [J]
Zone,Meter,General:Cooling:EnergyTransfer:Zone:OFFICE_PRIVATE_84 [J]
Zone,Meter,EnergyTransfer:Zone:BREAK_ROOM_85 [J]
Zone,Meter,Heating:EnergyTransfer:Zone:BREAK_ROOM_85 [J]
Zone,Meter,General:Heating:EnergyTransfer:Zone:BREAK_ROOM_85 [J]
Zone,Meter,Cooling:EnergyTransfer:Zone:BREAK_ROOM_85 [J]
Zone,Meter,General:Cooling:EnergyTransfer:Zone:BREAK_ROOM_85 [J]
Zone,Meter,EnergyTransfer:Zone:MECHANICAL_85 [J]
Zone,Meter,Heating:EnergyTransfer:Zone:MECHANICAL_85 [J]
Zone,Meter,General:Heating:EnergyTransfer:Zone:MECHANICAL_85 [J]
Zone,Meter,Cooling:EnergyTransfer:Zone:MECHANICAL_85 [J]
Zone,Meter,General:Cooling:EnergyTransfer:Zone:MECHANICAL_85 [J]
Zone,Meter,EnergyTransfer:Zone:OFFICE_OPEN_85 [J]
Zone,Meter,Heating:EnergyTransfer:Zone:OFFICE_OPEN_85 [J]
Zone,Meter,General:Heating:EnergyTransfer:Zone:OFFICE_OPEN_85 [J]
Zone,Meter,Cooling:EnergyTransfer:Zone:OFFICE_OPEN_85 [J]
Zone,Meter,General:Cooling:EnergyTransfer:Zone:OFFICE_OPEN_85 [J]
Zone,Meter,EnergyTransfer:Zone:CONFERENCE_86 [J]
Zone,Meter,Heating:EnergyTransfer:Zone:CONFERENCE_86 [J]
Zone,Meter,General:Heating:EnergyTransfer:Zone:CONFERENCE_86 [J]
Zone,Meter,Cooling:EnergyTransfer:Zone:CONFERENCE_86 [J]
Zone,Meter,General:Cooling:EnergyTransfer:Zone:CONFERENCE_86 [J]
Zone,Meter,EnergyTransfer:Zone:MECHANICAL_86 [J]
Zone,Meter,Heating:EnergyTransfer:Zone:MECHANICAL_86 [J]
Zone,Meter,General:Heating:EnergyTransfer:Zone:MECHANICAL_86 [J]
Zone,Meter,Cooling:EnergyTransfer:Zone:MECHANICAL_86 [J]
Zone,Meter,General:Cooling:EnergyTransfer:Zone:MECHANICAL_86 [J]
Zone,Meter,EnergyTransfer:Zone:OFFICE_PRIVATE_86 [J]
Zone,Meter,Heating:EnergyTransfer:Zone:OFFICE_PRIVATE_86 [J]
Zone,Meter,General:Heating:EnergyTransfer:Zone:OFFICE_PRIVATE_86 [J]
Zone,Meter,Cooling:EnergyTransfer:Zone:OFFICE_PRIVATE_86 [J]
Zone,Meter,General:Cooling:EnergyTransfer:Zone:OFFICE_PRIVATE_86 [J]
Zone,Meter,EnergyTransfer:Zone:MECHANICAL_87 [J]
Zone,Meter,Heating:EnergyTransfer:Zone:MECHANICAL_87 [J]
Zone,Meter,General:Heating:EnergyTransfer:Zone:MECHANICAL_87 [J]
Zone,Meter,Cooling:EnergyTransfer:Zone:MECHANICAL_87 [J]
Zone,Meter,General:Cooling:EnergyTransfer:Zone:MECHANICAL_87 [J]
Zone,Meter,EnergyTransfer:Zone:LOBBY_88 [J]
Zone,Meter,Heating:EnergyTransfer:Zone:LOBBY_88 [J]
Zone,Meter,General:Heating:EnergyTransfer:Zone:LOBBY_88 [J]
Zone,Meter,Cooling:EnergyTransfer:Zone:LOBBY_88 [J]
Zone,Meter,General:Cooling:EnergyTransfer:Zone:LOBBY_88 [J]
Zone,Meter,EnergyTransfer:Zone:CONFERENCE_88 [J]
Zone,Meter,Heating:EnergyTransfer:Zone:CONFERENCE_88 [J]
Zone,Meter,General:Heating:EnergyTransfer:Zone:CONFERENCE_88 [J]
Zone,Meter,Cooling:EnergyTransfer:Zone:CONFERENCE_88 [J]
Zone,Meter,General:Cooling:EnergyTransfer:Zone:CONFERENCE_88 [J]
Zone,Meter,EnergyTransfer:Zone:BREAK_ROOM_88 [J]
Zone,Meter,Heating:EnergyTransfer:Zone:BREAK_ROOM_88 [J]
Zone,Meter,General:Heating:EnergyTransfer:Zone:BREAK_ROOM_88 [J]
Zone,Meter,Cooling:EnergyTransfer:Zone:BREAK_ROOM_88 [J]
Zone,Meter,General:Cooling:EnergyTransfer:Zone:BREAK_ROOM_88 [J]
Zone,Meter,EnergyTransfer:Zone:STORAGE_88 [J]
Zone,Meter,Heating:EnergyTransfer:Zone:STORAGE_88 [J]
Zone,Meter,General:Heating:EnergyTransfer:Zone:STORAGE_88 [J]
Zone,Meter,Cooling:EnergyTransfer:Zone:STORAGE_88 [J]
Zone,Meter,General:Cooling:EnergyTransfer:Zone:STORAGE_88 [J]
Zone,Meter,EnergyTransfer:Zone:BREAK_ROOM_89 [J]
Zone,Meter,Heating:EnergyTransfer:Zone:BREAK_ROOM_89 [J]
Zone,Meter,General:Heating:EnergyTransfer:Zone:BREAK_ROOM_89 [J]
Zone,Meter,Cooling:EnergyTransfer:Zone:BREAK_ROOM_89 [J]
Zone,Meter,General:Cooling:EnergyTransfer:Zone:BREAK_ROOM_89 [J]
Zone,Meter,EnergyTransfer:Zone:OFFICE_PRIVATE_89 [J]
Zone,Meter,Heating:EnergyTransfer:Zone:OFFICE_PRIVATE_89 [J]
Zone,Meter,General:Heating:EnergyTransfer:Zone:OFFICE_PRIVATE_89 [J]
Zone,Meter,Cooling:EnergyTransfer:Zone:OFFICE_PRIVATE_89 [J]
Zone,Meter,General:Cooling:EnergyTransfer:Zone:OFFICE_PRIVATE_89 [J]
Zone,Meter,EnergyTransfer:Zone:BREAK_ROOM_90 [J]
Zone,Meter,Heating:EnergyTransfer:Zone:BREAK_ROOM_90 [J]
Zone,Meter,General:Heating:EnergyTransfer:Zone:BREAK_ROOM_90 [J]
Zone,Meter,Cooling:EnergyTransfer:Zone:BREAK_ROOM_90 [J]
Zone,Meter,General:Cooling:EnergyTransfer:Zone:BREAK_ROOM_90 [J]
Zone,Meter,EnergyTransfer:Zone:OFFICE_PRIVATE_90 [J]
Zone,Meter,Heating:EnergyTransfer:Zone:OFFICE_PRIVATE_90 [J]
Zone,Meter,General:Heating:EnergyTransfer:Zone:OFFICE_PRIVATE_90 [J]
Zone,Meter,Cooling:EnergyTransfer:Zone:OFFICE_PRIVATE_90 [J]
Zone,Meter,General:Cooling:EnergyTransfer:Zone:OFFICE_PRIVATE_90 [J]
Zone,Meter,EnergyTransfer:Zone:STORAGE_90 [J]
Zone,Meter,Heating:EnergyTransfer:Zone:STORAGE_90 [J]
Zone,Meter,General:Heating:EnergyTransfer:Zone:STORAGE_90 [J]
Zone,Meter,Cooling:EnergyTransfer:Zone:STORAGE_90 [J]
Zone,Meter,General:Cooling:EnergyTransfer:Zone:STORAGE_90 [J]
Zone,Meter,EnergyTransfer:Zone:BREAK_ROOM_91 [J]
Zone,Meter,Heating:EnergyTransfer:Zone:BREAK_ROOM_91 [J]
Zone,Meter,General:Heating:EnergyTransfer:Zone:BREAK_ROOM_91 [J]
Zone,Meter,Cooling:EnergyTransfer:Zone:BREAK_ROOM_91 [J]
Zone,Meter,General:Cooling:EnergyTransfer:Zone:BREAK_ROOM_91 [J]
Zone,Meter,EnergyTransfer:Zone:STORAGE_91 [J]
Zone,Meter,Heating:EnergyTransfer:Zone:STORAGE_91 [J]
Zone,Meter,General:Heating:EnergyTransfer:Zone:STORAGE_91 [J]
Zone,Meter,Cooling:EnergyTransfer:Zone:STORAGE_91 [J]
Zone,Meter,General:Cooling:EnergyTransfer:Zone:STORAGE_91 [J]
Zone,Meter,EnergyTransfer:Zone:LOBBY_92 [J]
Zone,Meter,Heating:EnergyTransfer:Zone:LOBBY_92 [J]
Zone,Meter,General:Heating:EnergyTransfer:Zone:LOBBY_92 [J]
Zone,Meter,Cooling:EnergyTransfer:Zone:LOBBY_92 [J]
Zone,Meter,General:Cooling:EnergyTransfer:Zone:LOBBY_92 [J]
Zone,Meter,EnergyTransfer:Zone:CONFERENCE_92 [J]
Zone,Meter,Heating:EnergyTransfer:Zone:CONFERENCE_92 [J]
Zone,Meter,General:Heating:EnergyTransfer:Zone:CONFERENCE_92 [J]
Zone,Meter,Cooling:EnergyTransfer:Zone:CONFERENCE_92 [J]
Zone,Meter,General:Cooling:EnergyTransfer:Zone:CONFERENCE_92 [J]
Zone,Meter,EnergyTransfer:Zone:BREAK_ROOM_92 [J]
Zone,Meter,Heating:EnergyTransfer:Zone:BREAK_ROOM_92 [J]
Zone,Meter,General:Heating:EnergyTransfer:Zone:BREAK_ROOM_92 [J]
Zone,Meter,Cooling:EnergyTransfer:Zone:BREAK_ROOM_92 [J]
Zone,Meter,General:Cooling:EnergyTransfer:Zone:BREAK_ROOM_92 [J]
Zone,Meter,EnergyTransfer:Zone:STORAGE_92 [J]
Zone,Meter,Heating:EnergyTransfer:Zone:STORAGE_92 [J]
Zone,Meter,General:Heating:EnergyTransfer:Zone:STORAGE_92 [J]
Zone,Meter,Cooling:EnergyTransfer:Zone:STORAGE_92 [J]
Zone,Meter,General:Cooling:EnergyTransfer:Zone:STORAGE_92 [J]
Zone,Meter,EnergyTransfer:Zone:LOBBY_93 [J]
Zone,Meter,Heating:EnergyTransfer:Zone:LOBBY_93 [J]
Zone,Meter,General:Heating:EnergyTransfer:Zone:LOBBY_93 [J]
Zone,Meter,Cooling:EnergyTransfer:Zone:LOBBY_93 [J]
Zone,Meter,General:Cooling:EnergyTransfer:Zone:LOBBY_93 [J]
Zone,Meter,EnergyTransfer:Zone:CONFERENCE_93 [J]
Zone,Meter,Heating:EnergyTransfer:Zone:CONFERENCE_93 [J]
Zone,Meter,General:Heating:EnergyTransfer:Zone:CONFERENCE_93 [J]
Zone,Meter,Cooling:EnergyTransfer:Zone:CONFERENCE_93 [J]
Zone,Meter,General:Cooling:EnergyTransfer:Zone:CONFERENCE_93 [J]
Zone,Meter,EnergyTransfer:Zone:MECHANICAL_93 [J]
Zone,Meter,Heating:EnergyTransfer:Zone:MECHANICAL_93 [J]
Zone,Meter,General:Heating:EnergyTransfer:Zone:MECHANICAL_93 [J]
Zone,Meter,Cooling:EnergyTransfer:Zone:MECHANICAL_93 [J]
Zone,Meter,General:Cooling:EnergyTransfer:Zone:MECHANICAL_93 [J]
Zone,Meter,EnergyTransfer:Zone:STORAGE_93 [J]
Zone,Meter,Heating:EnergyTransfer:Zone:STORAGE_93 [J]
Zone,Meter,General:Heating:EnergyTransfer:Zone:STORAGE_93 [J]
Zone,Meter,Cooling:EnergyTransfer:Zone:STORAGE_93 [J]
Zone,Meter,General:Cooling:EnergyTransfer:Zone:STORAGE_93 [J]
Zone,Meter,EnergyTransfer:Zone:MECHANICAL_94 [J]
Zone,Meter,Heating:EnergyTransfer:Zone:MECHANICAL_94 [J]
Zone,Meter,General:Heating:EnergyTransfer:Zone:MECHANICAL_94 [J]
Zone,Meter,Cooling:EnergyTransfer:Zone:MECHANICAL_94 [J]
Zone,Meter,General:Cooling:EnergyTransfer:Zone:MECHANICAL_94 [J]
Zone,Meter,EnergyTransfer:Zone:LOBBY_95 [J]
Zone,Meter,Heating:EnergyTransfer:Zone:LOBBY_95 [J]
Zone,Meter,General:Heating:EnergyTransfer:Zone:LOBBY_95 [J]
Zone,Meter,Cooling:EnergyTransfer:Zone:LOBBY_95 [J]
Zone,Meter,General:Cooling:EnergyTransfer:Zone:LOBBY_95 [J]
Zone,Meter,EnergyTransfer:Zone:CONFERENCE_95 [J]
Zone,Meter,Heating:EnergyTransfer:Zone:CONFERENCE_95 [J]
Zone,Meter,General:Heating:EnergyTransfer:Zone:CONFERENCE_95 [J]
Zone,Meter,Cooling:EnergyTransfer:Zone:CONFERENCE_95 [J]
Zone,Meter,General:Cooling:EnergyTransfer:Zone:CONFERENCE_95 [J]
Zone,Meter,EnergyTransfer:Zone:BREAK_ROOM_95 [J]
Zone,Meter,Heating:EnergyTransfer:Zone:BREAK_ROOM_95 [J]
Zone,Meter,General:Heating:EnergyTransfer:Zone:BREAK_ROOM_95 [J]
Zone,Meter,Cooling:EnergyTransfer:Zone:BREAK_ROOM_95 [J]
Zone,Meter,General:Cooling:EnergyTransfer:Zone:BREAK_ROOM_95 [J]
Zone,Meter,EnergyTransfer:Zone:OFFICE_OPEN_95 [J]
Zone,Meter,Heating:EnergyTransfer:Zone:OFFICE_OPEN_95 [J]
Zone,Meter,General:Heating:EnergyTransfer:Zone:OFFICE_OPEN_95 [J]
Zone,Meter,Cooling:EnergyTransfer:Zone:OFFICE_OPEN_95 [J]
Zone,Meter,General:Cooling:EnergyTransfer:Zone:OFFICE_OPEN_95 [J]
Zone,Meter,EnergyTransfer:Zone:STORAGE_95 [J]
Zone,Meter,Heating:EnergyTransfer:Zone:STORAGE_95 [J]
Zone,Meter,General:Heating:EnergyTransfer:Zone:STORAGE_95 [J]
Zone,Meter,Cooling:EnergyTransfer:Zone:STORAGE_95 [J]
Zone,Meter,General:Cooling:EnergyTransfer:Zone:STORAGE_95 [J]
Zone,Meter,EnergyTransfer:Zone:CONFERENCE_96 [J]
Zone,Meter,Heating:EnergyTransfer:Zone:CONFERENCE_96 [J]
Zone,Meter,General:Heating:EnergyTransfer:Zone:CONFERENCE_96 [J]
Zone,Meter,Cooling:EnergyTransfer:Zone:CONFERENCE_96 [J]
Zone,Meter,General:Cooling:EnergyTransfer:Zone:CONFERENCE_96 [J]
Zone,Meter,EnergyTransfer:Zone:BREAK_ROOM_96 [J]
Zone,Meter,Heating:EnergyTransfer:Zone:BREAK_ROOM_96 [J]
Zone,Meter,General:Heating:EnergyTransfer:Zone:BREAK_ROOM_96 [J]
Zone,Meter,Cooling:EnergyTransfer:Zone:BREAK_ROOM_96 [J]
Zone,Meter,General:Cooling:EnergyTransfer:Zone:BREAK_ROOM_96 [J]
Zone,Meter,EnergyTransfer:Zone:MECHANICAL_96 [J]
Zone,Meter,Heating:EnergyTransfer:Zone:MECHANICAL_96 [J]
Zone,Meter,General:Heating:EnergyTransfer:Zone:MECHANICAL_96 [J]
Zone,Meter,Cooling:EnergyTransfer:Zone:MECHANICAL_96 [J]
Zone,Meter,General:Cooling:EnergyTransfer:Zone:MECHANICAL_96 [J]
Zone,Meter,EnergyTransfer:Zone:OFFICE_PRIVATE_96 [J]
Zone,Meter,Heating:EnergyTransfer:Zone:OFFICE_PRIVATE_96 [J]
Zone,Meter,General:Heating:EnergyTransfer:Zone:OFFICE_PRIVATE_96 [J]
Zone,Meter,Cooling:EnergyTransfer:Zone:OFFICE_PRIVATE_96 [J]
Zone,Meter,General:Cooling:EnergyTransfer:Zone:OFFICE_PRIVATE_96 [J]
Zone,Meter,EnergyTransfer:Zone:STORAGE_96 [J]
Zone,Meter,Heating:EnergyTransfer:Zone:STORAGE_96 [J]
Zone,Meter,General:Heating:EnergyTransfer:Zone:STORAGE_96 [J]
Zone,Meter,Cooling:EnergyTransfer:Zone:STORAGE_96 [J]
Zone,Meter,General:Cooling:EnergyTransfer:Zone:STORAGE_96 [J]
Zone,Meter,EnergyTransfer:Zone:CONFERENCE_97 [J]
Zone,Meter,Heating:EnergyTransfer:Zone:CONFERENCE_97 [J]
Zone,Meter,General:Heating:EnergyTransfer:Zone:CONFERENCE_97 [J]
Zone,Meter,Cooling:EnergyTransfer:Zone:CONFERENCE_97 [J]
Zone,Meter,General:Cooling:EnergyTransfer:Zone:CONFERENCE_97 [J]
Zone,Meter,EnergyTransfer:Zone:BREAK_ROOM_97 [J]
Zone,Meter,Heating:EnergyTransfer:Zone:BREAK_ROOM_97 [J]
Zone,Meter,General:Heating:EnergyTransfer:Zone:BREAK_ROOM_97 [J]
Zone,Meter,Cooling:EnergyTransfer:Zone:BREAK_ROOM_97 [J]
Zone,Meter,General:Cooling:EnergyTransfer:Zone:BREAK_ROOM_97 [J]
Zone,Meter,EnergyTransfer:Zone:OFFICE_PRIVATE_97 [J]
Zone,Meter,Heating:EnergyTransfer:Zone:OFFICE_PRIVATE_97 [J]
Zone,Meter,General:Heating:EnergyTransfer:Zone:OFFICE_PRIVATE_97 [J]
Zone,Meter,Cooling:EnergyTransfer:Zone:OFFICE_PRIVATE_97 [J]
Zone,Meter,General:Cooling:EnergyTransfer:Zone:OFFICE_PRIVATE_97 [J]
Zone,Meter,EnergyTransfer:Zone:CONFERENCE_98 [J]
Zone,Meter,Heating:EnergyTransfer:Zone:CONFERENCE_98 [J]
Zone,Meter,General:Heating:EnergyTransfer:Zone:CONFERENCE_98 [J]
Zone,Meter,Cooling:EnergyTransfer:Zone:CONFERENCE_98 [J]
Zone,Meter,General:Cooling:EnergyTransfer:Zone:CONFERENCE_98 [J]
Zone,Meter,EnergyTransfer:Zone:BREAK_ROOM_98 [J]
Zone,Meter,Heating:EnergyTransfer:Zone:BREAK_ROOM_98 [J]
Zone,Meter,General:Heating:EnergyTransfer:Zone:BREAK_ROOM_98 [J]
Zone,Meter,Cooling:EnergyTransfer:Zone:BREAK_ROOM_98 [J]
Zone,Meter,General:Cooling:EnergyTransfer:Zone:BREAK_ROOM_98 [J]
Zone,Meter,EnergyTransfer:Zone:OFFICE_OPEN_98 [J]
Zone,Meter,Heating:EnergyTransfer:Zone:OFFICE_OPEN_98 [J]
Zone,Meter,General:Heating:EnergyTransfer:Zone:OFFICE_OPEN_98 [J]
Zone,Meter,Cooling:EnergyTransfer:Zone:OFFICE_OPEN_98 [J]
Zone,Meter,General:Cooling:EnergyTransfer:Zone:OFFICE_OPEN_98 [J]
Zone,Meter,EnergyTransfer:Zone:STORAGE_98 [J]
Zone,Meter,Heating:EnergyTransfer:Zone:STORAGE_98 [J]
Zone,Meter,General:Heating:EnergyTransfer:Zone:STORAGE_98 [J]
Zone,Meter,Cooling:EnergyTransfer:Zone:STORAGE_98 [J]
Zone,Meter,General:Cooling:EnergyTransfer:Zone:STORAGE_98 [J]
Zone,Meter,EnergyTransfer:Zone:LOBBY_99 [J]
Zone,Meter,Heating:EnergyTransfer:Zone:LOBBY_99 [J]
Zone,Meter,General:Heating:EnergyTransfer:Zone:LOBBY_99 [J]
Zone,Meter,Cooling:EnergyTransfer:Zone:LOBBY_99 [J]
Zone,Meter,General:Cooling:EnergyTransfer:Zone:LOBBY_99 [J]
Zone,Meter,EnergyTransfer:Zone:CONFERENCE_99 [J]
Zone,Meter,Heating:EnergyTransfer:Zone:CONFERENCE_99 [J]
Zone,Meter,General:Heating:EnergyTransfer:Zone:CONFERENCE_99 [J]
Zone,Meter,Cooling:EnergyTransfer:Zone:CONFERENCE_99 [J]
Zone,Meter,General:Cooling:EnergyTransfer:Zone:CONFERENCE_99 [J]
Zone,Meter,EnergyTransfer:Zone:BREAK_ROOM_99 [J]
Zone,Meter,Heating:EnergyTransfer:Zone:BREAK_ROOM_99 [J]
Zone,Meter,General:Heating:EnergyTransfer:Zone:BREAK_ROOM_99 [J]
Zone,Meter,Cooling:EnergyTransfer:Zone:BREAK_ROOM_99 [J]
Zone,Meter,General:Cooling:EnergyTransfer:Zone:BREAK_ROOM_99 [J]
Zone,Meter,EnergyTransfer:Zone:OFFICE_OPEN_99 [J]
Zone,Meter,Heating:EnergyTransfer:Zone:OFFICE_OPEN_99 [J]
Zone,Meter,General:Heating:EnergyTransfer:Zone:OFFICE_OPEN_99 [J]
Zone,Meter,Cooling:EnergyTransfer:Zone:OFFICE_OPEN_99 [J]
Zone,Meter,General:Cooling:EnergyTransfer:Zone:OFFICE_OPEN_99 [J]
Zone,Meter,EnergyTransfer:Zone:STORAGE_99 [J]
Zone,Meter,Heating:EnergyTransfer:Zone:STORAGE_99 [J]
Zone,Meter,General:Heating:EnergyTransfer:Zone:STORAGE_99 [J]
Zone,Meter,Cooling:EnergyTransfer:Zone:STORAGE_99 [J]
Zone,Meter,General:Cooling:EnergyTransfer:Zone:STORAGE_99 [J]
Zone,Meter,EnergyTransfer:Zone:CONFERENCE_100 [J]
Zone,Meter,Heating:EnergyTransfer:Zone:CONFERENCE_100 [J]
Zone,Meter,General:Heating:EnergyTransfer:Zone:CONFERENCE_100 [J]
Zone,Meter,Cooling:EnergyTransfer:Zone:CONFERENCE_100 [J]
Zone,Meter,General:Cooling:EnergyTransfer:Zone:CONFERENCE_100 [J]
Zone,Meter,EnergyTransfer:Zone:BREAK_ROOM_100 [J]
Zone,Meter,Heating:EnergyTransfer:Zone:BREAK_ROOM_100 [J]
Zone,Meter,General:Heating:EnergyTransfer:Zone:BREAK_ROOM_100 [J]
Zone,Meter,Cooling:EnergyTransfer:Zone:BREAK_ROOM_100 [J]
Zone,Meter,General:Cooling:EnergyTransfer:Zone:BREAK_ROOM_100 [J]
Zone,Meter,EnergyTransfer:Zone:MECHANICAL_100 [J]
Zone,Meter,Heating:EnergyTransfer:Zone:MECHANICAL_100 [J]
Zone,Meter,General:Heating:EnergyTransfer:Zone:MECHANICAL_100 [J]
Zone,Meter,Cooling:EnergyTransfer:Zone:MECHANICAL_100 [J]
Zone,Meter,General:Cooling:EnergyTransfer:Zone:MECHANICAL_100 [J]
Zone,Meter,EnergyTransfer:Zone:LOBBY_101 [J]
Zone,Meter,Heating:EnergyTransfer:Zone:LOBBY_101 [J]
Zone,Meter,General:Heating:EnergyTransfer:Zone:LOBBY_101 [J]
Zone,Meter,Cooling:EnergyTransfer:Zone:LOBBY_101 [J]
Zone,Meter,General:Cooling:EnergyTransfer:Zone:LOBBY_101 [J]
Zone,Meter,EnergyTransfer:Zone:BREAK_ROOM_101 [J]
Zone,Meter,Heating:EnergyTransfer:Zone:BREAK_ROOM_101 [J]
Zone,Meter,General:Heating:EnergyTransfer:Zone:BREAK_ROOM_101 [J]
Zone,Meter,Cooling:EnergyTransfer:Zone:BREAK_ROOM_101 [J]
Zone,Meter,General:Cooling:EnergyTransfer:Zone:BREAK_ROOM_101 [J]
Zone,Meter,EnergyTransfer:Zone:OFFICE_OPEN_101 [J]
Zone,Meter,Heating:EnergyTransfer:Zone:OFFICE_OPEN_101 [J]
Zone,Meter,General:Heating:EnergyTransfer:Zone:OFFICE_OPEN_101 [J]
Zone,Meter,Cooling:EnergyTransfer:Zone:OFFICE_OPEN_101 [J]
Zone,Meter,General:Cooling:EnergyTransfer:Zone:OFFICE_OPEN_101 [J]
Zone,Meter,EnergyTransfer:Zone:OFFICE_PRIVATE_101 [J]
Zone,Meter,Heating:EnergyTransfer:Zone:OFFICE_PRIVATE_101 [J]
Zone,Meter,General:Heating:EnergyTransfer:Zone:OFFICE_PRIVATE_101 [J]
Zone,Meter,Cooling:EnergyTransfer:Zone:OFFICE_PRIVATE_101 [J]
Zone,Meter,General:Cooling:EnergyTransfer:Zone:OFFICE_PRIVATE_101 [J]
Zone,Meter,EnergyTransfer:Zone:STORAGE_101 [J]
Zone,Meter,Heating:EnergyTransfer:Zone:STORAGE_101 [J]
Zone,Meter,General:Heating:EnergyTransfer:Zone:STORAGE_101 [J]
Zone,Meter,Cooling:EnergyTransfer:Zone:STORAGE_101 [J]
Zone,Meter,General:Cooling:EnergyTransfer:Zone:STORAGE_101 [J]
Zone,Meter,EnergyTransfer:Zone:LOBBY_102 [J]
Zone,Meter,Heating:EnergyTransfer:Zone:LOBBY_102 [J]
Zone,Meter,General:Heating:EnergyTransfer:Zone:LOBBY_102 [J]
Zone,Meter,Cooling:EnergyTransfer:Zone:LOBBY_102 [J]
Zone,Meter,General:Cooling:EnergyTransfer:Zone:LOBBY_102 [J]
Zone,Meter,EnergyTransfer:Zone:BREAK_ROOM_102 [J]
Zone,Meter,Heating:EnergyTransfer:Zone:BREAK_ROOM_102 [J]
Zone,Meter,General:Heating:EnergyTransfer:Zone:BREAK_ROOM_102 [J]
Zone,Meter,Cooling:EnergyTransfer:Zone:BREAK_ROOM_102 [J]
Zone,Meter,General:Cooling:EnergyTransfer:Zone:BREAK_ROOM_102 [J]
Zone,Meter,EnergyTransfer:Zone:LOBBY_103 [J]
Zone,Meter,Heating:EnergyTransfer:Zone:LOBBY_103 [J]
Zone,Meter,General:Heating:EnergyTransfer:Zone:LOBBY_103 [J]
Zone,Meter,Cooling:EnergyTransfer:Zone:LOBBY_103 [J]
Zone,Meter,General:Cooling:EnergyTransfer:Zone:LOBBY_103 [J]
Zone,Meter,EnergyTransfer:Zone:BREAK_ROOM_103 [J]
Zone,Meter,Heating:EnergyTransfer:Zone:BREAK_ROOM_103 [J]
Zone,Meter,General:Heating:EnergyTransfer:Zone:BREAK_ROOM_103 [J]
Zone,Meter,Cooling:EnergyTransfer:Zone:BREAK_ROOM_103 [J]
Zone,Meter,General:Cooling:EnergyTransfer:Zone:BREAK_ROOM_103 [J]
Zone,Meter,EnergyTransfer:Zone:MECHANICAL_103 [J]
Zone,Meter,Heating:EnergyTransfer:Zone:MECHANICAL_103 [J]
Zone,Meter,General:Heating:EnergyTransfer:Zone:MECHANICAL_103 [J]
Zone,Meter,Cooling:EnergyTransfer:Zone:MECHANICAL_103 [J]
Zone,Meter,General:Cooling:EnergyTransfer:Zone:MECHANICAL_103 [J]
Zone,Meter,EnergyTransfer:Zone:OFFICE_PRIVATE_103 [J]
Zone,Meter,Heating:EnergyTransfer:Zone:OFFICE_PRIVATE_103 [J]
Zone,Meter,General:Heating:EnergyTransfer:Zone:OFFICE_PRIVATE_103 [J]
Zone,Meter,Cooling:EnergyTransfer:Zone:OFFICE_PRIVATE_103 [J]
Zone,Meter,General:Cooling:EnergyTransfer:Zone:OFFICE_PRIVATE_103 [J]
Zone,Meter,EnergyTransfer:Zone:STORAGE_103 [J]
Zone,Meter,Heating:EnergyTransfer:Zone:STORAGE_103 [J]
Zone,Meter,General:Heating:EnergyTransfer:Zone:STORAGE_103 [J]
Zone,Meter,Cooling:EnergyTransfer:Zone:STORAGE_103 [J]
Zone,Meter,General:Cooling:EnergyTransfer:Zone:STORAGE_103 [J]
Zone,Meter,EnergyTransfer:HVAC [J]
Zone,Meter,HeatingCoils:EnergyTransfer [J]
Zone,Meter,Electricity:HVAC [J]
Zone,Meter,Heating:Electricity [J]
Zone,Meter,General:Heating:Electricity [J]
Zone,Meter,Fans:Electricity [J]
Zone,Meter,General:Fans:Electricity [J]
Zone,Meter,CoolingCoils:EnergyTransfer [J]
Zone,Meter,Cooling:Electricity [J]
Zone,Meter,General:Cooling:Electricity [J]
Zone,Meter,ElectricityPurchased:Facility [J]
Zone,Meter,ElectricityPurchased:Plant [J]
Zone,Meter,Cogeneration:ElectricityPurchased [J]
Zone,Meter,General:Cogeneration:ElectricityPurchased [J]
Zone,Meter,ElectricitySurplusSold:Facility [J]
Zone,Meter,ElectricitySurplusSold:Plant [J]
Zone,Meter,Cogeneration:ElectricitySurplusSold [J]
Zone,Meter,General:Cogeneration:ElectricitySurplusSold [J]
Zone,Meter,ElectricityNet:Facility [J]
Zone,Meter,ElectricityNet:Plant [J]
Zone,Meter,Cogeneration:ElectricityNet [J]
Zone,Meter,General:Cogeneration:ElectricityNet [J]
Zone,Meter,Carbon Equivalent:Facility [kg]
Zone,Meter,CarbonEquivalentEmissions:Carbon Equivalent [kg]
