Program Version,EnergyPlus, Version 24.2.0-94a887817b, YMD=2025.11.02 18:41
! This file shows details about the branches, nodes, and other
! elements of the flow connections.
! This file is intended for use in "debugging" potential problems
! that may also be detected by the program, but may be more easily
! identified by "eye".
! This file is also intended to support software which draws a
! schematic diagram of the HVAC system.
! ===============================================================
! #Nodes,<Number of Unique Nodes>
 #Nodes,4279
! <Node>,<NodeNumber>,<Node Name>,<Node Fluid Type>,<# Times Node Referenced After Definition>
 Node,1,LOBBY_0_Z1_ADUOUTLET,Air,4
 Node,2,MECHANICAL_0_Z2_ADUOUTLET,Air,4
 Node,3,OFFICE_OPEN_0_Z3_ADUOUTLET,Air,4
 Node,4,LOBBY_1_Z4_ADUOUTLET,Air,4
 Node,5,CONFERENCE_1_Z5_ADUOUTLET,Air,4
 Node,6,MECHANICAL_1_Z6_ADUOUTLET,Air,4
 Node,7,LOBBY_2_Z7_ADUOUTLET,Air,4
 Node,8,CONFERENCE_2_Z8_ADUOUTLET,Air,4
 Node,9,BREAK_ROOM_2_Z9_ADUOUTLET,Air,4
 Node,10,MECHANICAL_2_Z10_ADUOUTLET,Air,4
 Node,11,OFFICE_OPEN_2_Z11_ADUOUTLET,Air,4
 Node,12,OFFICE_PRIVATE_2_Z12_ADUOUTLET,Air,4
 Node,13,LOBBY_3_Z13_ADUOUTLET,Air,4
 Node,14,CONFERENCE_3_Z14_ADUOUTLET,Air,4
 Node,15,OFFICE_PRIVATE_3_Z15_ADUOUTLET,Air,4
 Node,16,STORAGE_3_Z16_ADUOUTLET,Air,4
 Node,17,LOBBY_4_Z17_ADUOUTLET,Air,4
 Node,18,CONFERENCE_4_Z18_ADUOUTLET,Air,4
 Node,19,BREAK_ROOM_4_Z19_ADUOUTLET,Air,4
 Node,20,MECHANICAL_4_Z20_ADUOUTLET,Air,4
 Node,21,OFFICE_OPEN_4_Z21_ADUOUTLET,Air,4
 Node,22,OFFICE_PRIVATE_4_Z22_ADUOUTLET,Air,4
 Node,23,STORAGE_4_Z23_ADUOUTLET,Air,4
 Node,24,LOBBY_5_Z24_ADUOUTLET,Air,4
 Node,25,CONFERENCE_5_Z25_ADUOUTLET,Air,4
 Node,26,BREAK_ROOM_5_Z26_ADUOUTLET,Air,4
 Node,27,STORAGE_5_Z27_ADUOUTLET,Air,4
 Node,28,LOBBY_6_Z28_ADUOUTLET,Air,4
 Node,29,CONFERENCE_6_Z29_ADUOUTLET,Air,4
 Node,30,BREAK_ROOM_6_Z30_ADUOUTLET,Air,4
 Node,31,OFFICE_PRIVATE_6_Z31_ADUOUTLET,Air,4
 Node,32,STORAGE_6_Z32_ADUOUTLET,Air,4
 Node,33,LOBBY_7_Z33_ADUOUTLET,Air,4
 Node,34,CONFERENCE_7_Z34_ADUOUTLET,Air,4
 Node,35,MECHANICAL_7_Z35_ADUOUTLET,Air,4
 Node,36,STORAGE_7_Z36_ADUOUTLET,Air,4
 Node,37,BREAK_ROOM_8_Z37_ADUOUTLET,Air,4
 Node,38,OFFICE_OPEN_8_Z38_ADUOUTLET,Air,4
 Node,39,OFFICE_PRIVATE_8_Z39_ADUOUTLET,Air,4
 Node,40,STORAGE_8_Z40_ADUOUTLET,Air,4
 Node,41,STORAGE_9_Z41_ADUOUTLET,Air,4
 Node,42,CONFERENCE_10_Z42_ADUOUTLET,Air,4
 Node,43,OFFICE_PRIVATE_10_Z43_ADUOUTLET,Air,4
 Node,44,STORAGE_10_Z44_ADUOUTLET,Air,4
 Node,45,CONFERENCE_11_Z45_ADUOUTLET,Air,4
 Node,46,BREAK_ROOM_11_Z46_ADUOUTLET,Air,4
 Node,47,LOBBY_12_Z47_ADUOUTLET,Air,4
 Node,48,CONFERENCE_12_Z48_ADUOUTLET,Air,4
 Node,49,MECHANICAL_12_Z49_ADUOUTLET,Air,4
 Node,50,STORAGE_12_Z50_ADUOUTLET,Air,4
 Node,51,LOBBY_13_Z51_ADUOUTLET,Air,4
 Node,52,CONFERENCE_13_Z52_ADUOUTLET,Air,4
 Node,53,OFFICE_PRIVATE_13_Z53_ADUOUTLET,Air,4
 Node,54,STORAGE_13_Z54_ADUOUTLET,Air,4
 Node,55,CONFERENCE_14_Z55_ADUOUTLET,Air,4
 Node,56,BREAK_ROOM_14_Z56_ADUOUTLET,Air,4
 Node,57,MECHANICAL_14_Z57_ADUOUTLET,Air,4
 Node,58,OFFICE_OPEN_14_Z58_ADUOUTLET,Air,4
 Node,59,OFFICE_PRIVATE_14_Z59_ADUOUTLET,Air,4
 Node,60,CONFERENCE_15_Z60_ADUOUTLET,Air,4
 Node,61,OFFICE_PRIVATE_15_Z61_ADUOUTLET,Air,4
 Node,62,CONFERENCE_16_Z62_ADUOUTLET,Air,4
 Node,63,BREAK_ROOM_16_Z63_ADUOUTLET,Air,4
 Node,64,OFFICE_PRIVATE_16_Z64_ADUOUTLET,Air,4
 Node,65,CONFERENCE_17_Z65_ADUOUTLET,Air,4
 Node,66,BREAK_ROOM_17_Z66_ADUOUTLET,Air,4
 Node,67,MECHANICAL_17_Z67_ADUOUTLET,Air,4
 Node,68,OFFICE_OPEN_17_Z68_ADUOUTLET,Air,4
 Node,69,STORAGE_17_Z69_ADUOUTLET,Air,4
 Node,70,BREAK_ROOM_18_Z70_ADUOUTLET,Air,4
 Node,71,MECHANICAL_18_Z71_ADUOUTLET,Air,4
 Node,72,OFFICE_PRIVATE_18_Z72_ADUOUTLET,Air,4
 Node,73,CONFERENCE_19_Z73_ADUOUTLET,Air,4
 Node,74,MECHANICAL_19_Z74_ADUOUTLET,Air,4
 Node,75,OFFICE_PRIVATE_19_Z75_ADUOUTLET,Air,4
 Node,76,LOBBY_20_Z76_ADUOUTLET,Air,4
 Node,77,CONFERENCE_20_Z77_ADUOUTLET,Air,4
 Node,78,BREAK_ROOM_20_Z78_ADUOUTLET,Air,4
 Node,79,MECHANICAL_20_Z79_ADUOUTLET,Air,4
 Node,80,OFFICE_OPEN_20_Z80_ADUOUTLET,Air,4
 Node,81,OFFICE_PRIVATE_20_Z81_ADUOUTLET,Air,4
 Node,82,CONFERENCE_21_Z82_ADUOUTLET,Air,4
 Node,83,BREAK_ROOM_21_Z83_ADUOUTLET,Air,4
 Node,84,MECHANICAL_21_Z84_ADUOUTLET,Air,4
 Node,85,OFFICE_OPEN_21_Z85_ADUOUTLET,Air,4
 Node,86,STORAGE_21_Z86_ADUOUTLET,Air,4
 Node,87,CONFERENCE_22_Z87_ADUOUTLET,Air,4
 Node,88,BREAK_ROOM_22_Z88_ADUOUTLET,Air,4
 Node,89,STORAGE_22_Z89_ADUOUTLET,Air,4
 Node,90,LOBBY_23_Z90_ADUOUTLET,Air,4
 Node,91,CONFERENCE_23_Z91_ADUOUTLET,Air,4
 Node,92,MECHANICAL_23_Z92_ADUOUTLET,Air,4
 Node,93,OFFICE_OPEN_23_Z93_ADUOUTLET,Air,4
 Node,94,OFFICE_PRIVATE_23_Z94_ADUOUTLET,Air,4
 Node,95,STORAGE_23_Z95_ADUOUTLET,Air,4
 Node,96,LOBBY_24_Z96_ADUOUTLET,Air,4
 Node,97,BREAK_ROOM_24_Z97_ADUOUTLET,Air,4
 Node,98,MECHANICAL_24_Z98_ADUOUTLET,Air,4
 Node,99,OFFICE_OPEN_24_Z99_ADUOUTLET,Air,4
 Node,100,LOBBY_25_Z100_ADUOUTLET,Air,4
 Node,101,CONFERENCE_25_Z101_ADUOUTLET,Air,4
 Node,102,BREAK_ROOM_25_Z102_ADUOUTLET,Air,4
 Node,103,OFFICE_PRIVATE_25_Z103_ADUOUTLET,Air,4
 Node,104,STORAGE_25_Z104_ADUOUTLET,Air,4
 Node,105,LOBBY_26_Z105_ADUOUTLET,Air,4
 Node,106,BREAK_ROOM_26_Z106_ADUOUTLET,Air,4
 Node,107,OFFICE_OPEN_26_Z107_ADUOUTLET,Air,4
 Node,108,STORAGE_26_Z108_ADUOUTLET,Air,4
 Node,109,LOBBY_27_Z109_ADUOUTLET,Air,4
 Node,110,BREAK_ROOM_27_Z110_ADUOUTLET,Air,4
 Node,111,MECHANICAL_27_Z111_ADUOUTLET,Air,4
 Node,112,LOBBY_28_Z112_ADUOUTLET,Air,4
 Node,113,BREAK_ROOM_28_Z113_ADUOUTLET,Air,4
 Node,114,MECHANICAL_28_Z114_ADUOUTLET,Air,4
 Node,115,OFFICE_PRIVATE_28_Z115_ADUOUTLET,Air,4
 Node,116,LOBBY_29_Z116_ADUOUTLET,Air,4
 Node,117,CONFERENCE_29_Z117_ADUOUTLET,Air,4
 Node,118,MECHANICAL_29_Z118_ADUOUTLET,Air,4
 Node,119,STORAGE_29_Z119_ADUOUTLET,Air,4
 Node,120,CONFERENCE_30_Z120_ADUOUTLET,Air,4
 Node,121,BREAK_ROOM_30_Z121_ADUOUTLET,Air,4
 Node,122,LOBBY_31_Z122_ADUOUTLET,Air,4
 Node,123,CONFERENCE_31_Z123_ADUOUTLET,Air,4
 Node,124,MECHANICAL_31_Z124_ADUOUTLET,Air,4
 Node,125,OFFICE_PRIVATE_31_Z125_ADUOUTLET,Air,4
 Node,126,STORAGE_31_Z126_ADUOUTLET,Air,4
 Node,127,MECHANICAL_32_Z127_ADUOUTLET,Air,4
 Node,128,STORAGE_32_Z128_ADUOUTLET,Air,4
 Node,129,CONFERENCE_33_Z129_ADUOUTLET,Air,4
 Node,130,MECHANICAL_33_Z130_ADUOUTLET,Air,4
 Node,131,OFFICE_OPEN_33_Z131_ADUOUTLET,Air,4
 Node,132,OFFICE_PRIVATE_34_Z132_ADUOUTLET,Air,4
 Node,133,BREAK_ROOM_35_Z133_ADUOUTLET,Air,4
 Node,134,MECHANICAL_35_Z134_ADUOUTLET,Air,4
 Node,135,STORAGE_35_Z135_ADUOUTLET,Air,4
 Node,136,CONFERENCE_36_Z136_ADUOUTLET,Air,4
 Node,137,BREAK_ROOM_36_Z137_ADUOUTLET,Air,4
 Node,138,MECHANICAL_36_Z138_ADUOUTLET,Air,4
 Node,139,OFFICE_OPEN_36_Z139_ADUOUTLET,Air,4
 Node,140,CONFERENCE_37_Z140_ADUOUTLET,Air,4
 Node,141,BREAK_ROOM_37_Z141_ADUOUTLET,Air,4
 Node,142,OFFICE_PRIVATE_37_Z142_ADUOUTLET,Air,4
 Node,143,STORAGE_37_Z143_ADUOUTLET,Air,4
 Node,144,CONFERENCE_38_Z144_ADUOUTLET,Air,4
 Node,145,BREAK_ROOM_38_Z145_ADUOUTLET,Air,4
 Node,146,MECHANICAL_38_Z146_ADUOUTLET,Air,4
 Node,147,OFFICE_OPEN_38_Z147_ADUOUTLET,Air,4
 Node,148,OFFICE_PRIVATE_38_Z148_ADUOUTLET,Air,4
 Node,149,CONFERENCE_39_Z149_ADUOUTLET,Air,4
 Node,150,BREAK_ROOM_39_Z150_ADUOUTLET,Air,4
 Node,151,MECHANICAL_39_Z151_ADUOUTLET,Air,4
 Node,152,OFFICE_PRIVATE_39_Z152_ADUOUTLET,Air,4
 Node,153,STORAGE_39_Z153_ADUOUTLET,Air,4
 Node,154,LOBBY_40_Z154_ADUOUTLET,Air,4
 Node,155,CONFERENCE_40_Z155_ADUOUTLET,Air,4
 Node,156,BREAK_ROOM_40_Z156_ADUOUTLET,Air,4
 Node,157,MECHANICAL_40_Z157_ADUOUTLET,Air,4
 Node,158,OFFICE_OPEN_40_Z158_ADUOUTLET,Air,4
 Node,159,STORAGE_40_Z159_ADUOUTLET,Air,4
 Node,160,CONFERENCE_41_Z160_ADUOUTLET,Air,4
 Node,161,MECHANICAL_41_Z161_ADUOUTLET,Air,4
 Node,162,OFFICE_OPEN_41_Z162_ADUOUTLET,Air,4
 Node,163,OFFICE_PRIVATE_41_Z163_ADUOUTLET,Air,4
 Node,164,STORAGE_41_Z164_ADUOUTLET,Air,4
 Node,165,LOBBY_42_Z165_ADUOUTLET,Air,4
 Node,166,CONFERENCE_42_Z166_ADUOUTLET,Air,4
 Node,167,MECHANICAL_42_Z167_ADUOUTLET,Air,4
 Node,168,OFFICE_OPEN_42_Z168_ADUOUTLET,Air,4
 Node,169,LOBBY_43_Z169_ADUOUTLET,Air,4
 Node,170,BREAK_ROOM_43_Z170_ADUOUTLET,Air,4
 Node,171,MECHANICAL_43_Z171_ADUOUTLET,Air,4
 Node,172,OFFICE_PRIVATE_43_Z172_ADUOUTLET,Air,4
 Node,173,STORAGE_43_Z173_ADUOUTLET,Air,4
 Node,174,LOBBY_44_Z174_ADUOUTLET,Air,4
 Node,175,CONFERENCE_44_Z175_ADUOUTLET,Air,4
 Node,176,BREAK_ROOM_44_Z176_ADUOUTLET,Air,4
 Node,177,MECHANICAL_44_Z177_ADUOUTLET,Air,4
 Node,178,OFFICE_OPEN_44_Z178_ADUOUTLET,Air,4
 Node,179,OFFICE_PRIVATE_44_Z179_ADUOUTLET,Air,4
 Node,180,STORAGE_44_Z180_ADUOUTLET,Air,4
 Node,181,CONFERENCE_45_Z181_ADUOUTLET,Air,4
 Node,182,BREAK_ROOM_45_Z182_ADUOUTLET,Air,4
 Node,183,MECHANICAL_45_Z183_ADUOUTLET,Air,4
 Node,184,OFFICE_OPEN_45_Z184_ADUOUTLET,Air,4
 Node,185,STORAGE_45_Z185_ADUOUTLET,Air,4
 Node,186,MECHANICAL_46_Z186_ADUOUTLET,Air,4
 Node,187,OFFICE_PRIVATE_46_Z187_ADUOUTLET,Air,4
 Node,188,CONFERENCE_47_Z188_ADUOUTLET,Air,4
 Node,189,BREAK_ROOM_47_Z189_ADUOUTLET,Air,4
 Node,190,MECHANICAL_47_Z190_ADUOUTLET,Air,4
 Node,191,OFFICE_PRIVATE_47_Z191_ADUOUTLET,Air,4
 Node,192,LOBBY_48_Z192_ADUOUTLET,Air,4
 Node,193,CONFERENCE_48_Z193_ADUOUTLET,Air,4
 Node,194,MECHANICAL_48_Z194_ADUOUTLET,Air,4
 Node,195,OFFICE_PRIVATE_48_Z195_ADUOUTLET,Air,4
 Node,196,STORAGE_48_Z196_ADUOUTLET,Air,4
 Node,197,BREAK_ROOM_49_Z197_ADUOUTLET,Air,4
 Node,198,MECHANICAL_49_Z198_ADUOUTLET,Air,4
 Node,199,OFFICE_PRIVATE_49_Z199_ADUOUTLET,Air,4
 Node,200,LOBBY_50_Z200_ADUOUTLET,Air,4
 Node,201,CONFERENCE_50_Z201_ADUOUTLET,Air,4
 Node,202,BREAK_ROOM_50_Z202_ADUOUTLET,Air,4
 Node,203,MECHANICAL_50_Z203_ADUOUTLET,Air,4
 Node,204,OFFICE_PRIVATE_50_Z204_ADUOUTLET,Air,4
 Node,205,STORAGE_50_Z205_ADUOUTLET,Air,4
 Node,206,CONFERENCE_51_Z206_ADUOUTLET,Air,4
 Node,207,BREAK_ROOM_51_Z207_ADUOUTLET,Air,4
 Node,208,OFFICE_PRIVATE_51_Z208_ADUOUTLET,Air,4
 Node,209,LOBBY_52_Z209_ADUOUTLET,Air,4
 Node,210,CONFERENCE_52_Z210_ADUOUTLET,Air,4
 Node,211,MECHANICAL_52_Z211_ADUOUTLET,Air,4
 Node,212,OFFICE_PRIVATE_52_Z212_ADUOUTLET,Air,4
 Node,213,STORAGE_52_Z213_ADUOUTLET,Air,4
 Node,214,BREAK_ROOM_53_Z214_ADUOUTLET,Air,4
 Node,215,OFFICE_OPEN_53_Z215_ADUOUTLET,Air,4
 Node,216,LOBBY_54_Z216_ADUOUTLET,Air,4
 Node,217,CONFERENCE_54_Z217_ADUOUTLET,Air,4
 Node,218,BREAK_ROOM_54_Z218_ADUOUTLET,Air,4
 Node,219,MECHANICAL_54_Z219_ADUOUTLET,Air,4
 Node,220,OFFICE_PRIVATE_54_Z220_ADUOUTLET,Air,4
 Node,221,STORAGE_54_Z221_ADUOUTLET,Air,4
 Node,222,OFFICE_OPEN_55_Z222_ADUOUTLET,Air,4
 Node,223,OFFICE_PRIVATE_55_Z223_ADUOUTLET,Air,4
 Node,224,STORAGE_55_Z224_ADUOUTLET,Air,4
 Node,225,LOBBY_56_Z225_ADUOUTLET,Air,4
 Node,226,CONFERENCE_56_Z226_ADUOUTLET,Air,4
 Node,227,OFFICE_PRIVATE_56_Z227_ADUOUTLET,Air,4
 Node,228,STORAGE_56_Z228_ADUOUTLET,Air,4
 Node,229,CONFERENCE_57_Z229_ADUOUTLET,Air,4
 Node,230,BREAK_ROOM_57_Z230_ADUOUTLET,Air,4
 Node,231,OFFICE_PRIVATE_57_Z231_ADUOUTLET,Air,4
 Node,232,LOBBY_58_Z232_ADUOUTLET,Air,4
 Node,233,OFFICE_OPEN_58_Z233_ADUOUTLET,Air,4
 Node,234,LOBBY_59_Z234_ADUOUTLET,Air,4
 Node,235,CONFERENCE_59_Z235_ADUOUTLET,Air,4
 Node,236,BREAK_ROOM_59_Z236_ADUOUTLET,Air,4
 Node,237,MECHANICAL_59_Z237_ADUOUTLET,Air,4
 Node,238,OFFICE_PRIVATE_59_Z238_ADUOUTLET,Air,4
 Node,239,LOBBY_60_Z239_ADUOUTLET,Air,4
 Node,240,CONFERENCE_60_Z240_ADUOUTLET,Air,4
 Node,241,OFFICE_OPEN_61_Z241_ADUOUTLET,Air,4
 Node,242,STORAGE_61_Z242_ADUOUTLET,Air,4
 Node,243,BREAK_ROOM_62_Z243_ADUOUTLET,Air,4
 Node,244,OFFICE_OPEN_62_Z244_ADUOUTLET,Air,4
 Node,245,OFFICE_PRIVATE_62_Z245_ADUOUTLET,Air,4
 Node,246,OFFICE_OPEN_63_Z246_ADUOUTLET,Air,4
 Node,247,OFFICE_PRIVATE_63_Z247_ADUOUTLET,Air,4
 Node,248,LOBBY_64_Z248_ADUOUTLET,Air,4
 Node,249,CONFERENCE_64_Z249_ADUOUTLET,Air,4
 Node,250,OFFICE_OPEN_64_Z250_ADUOUTLET,Air,4
 Node,251,OFFICE_PRIVATE_64_Z251_ADUOUTLET,Air,4
 Node,252,OFFICE_OPEN_65_Z252_ADUOUTLET,Air,4
 Node,253,STORAGE_65_Z253_ADUOUTLET,Air,4
 Node,254,BREAK_ROOM_66_Z254_ADUOUTLET,Air,4
 Node,255,MECHANICAL_66_Z255_ADUOUTLET,Air,4
 Node,256,OFFICE_OPEN_67_Z256_ADUOUTLET,Air,4
 Node,257,STORAGE_67_Z257_ADUOUTLET,Air,4
 Node,258,LOBBY_68_Z258_ADUOUTLET,Air,4
 Node,259,CONFERENCE_68_Z259_ADUOUTLET,Air,4
 Node,260,MECHANICAL_68_Z260_ADUOUTLET,Air,4
 Node,261,OFFICE_PRIVATE_68_Z261_ADUOUTLET,Air,4
 Node,262,LOBBY_69_Z262_ADUOUTLET,Air,4
 Node,263,CONFERENCE_69_Z263_ADUOUTLET,Air,4
 Node,264,MECHANICAL_69_Z264_ADUOUTLET,Air,4
 Node,265,OFFICE_OPEN_69_Z265_ADUOUTLET,Air,4
 Node,266,OFFICE_PRIVATE_69_Z266_ADUOUTLET,Air,4
 Node,267,STORAGE_69_Z267_ADUOUTLET,Air,4
 Node,268,LOBBY_70_Z268_ADUOUTLET,Air,4
 Node,269,BREAK_ROOM_70_Z269_ADUOUTLET,Air,4
 Node,270,OFFICE_PRIVATE_70_Z270_ADUOUTLET,Air,4
 Node,271,STORAGE_70_Z271_ADUOUTLET,Air,4
 Node,272,CONFERENCE_71_Z272_ADUOUTLET,Air,4
 Node,273,MECHANICAL_71_Z273_ADUOUTLET,Air,4
 Node,274,OFFICE_PRIVATE_71_Z274_ADUOUTLET,Air,4
 Node,275,LOBBY_72_Z275_ADUOUTLET,Air,4
 Node,276,CONFERENCE_72_Z276_ADUOUTLET,Air,4
 Node,277,BREAK_ROOM_72_Z277_ADUOUTLET,Air,4
 Node,278,MECHANICAL_72_Z278_ADUOUTLET,Air,4
 Node,279,OFFICE_OPEN_72_Z279_ADUOUTLET,Air,4
 Node,280,BREAK_ROOM_73_Z280_ADUOUTLET,Air,4
 Node,281,MECHANICAL_73_Z281_ADUOUTLET,Air,4
 Node,282,OFFICE_OPEN_73_Z282_ADUOUTLET,Air,4
 Node,283,OFFICE_PRIVATE_73_Z283_ADUOUTLET,Air,4
 Node,284,OFFICE_PRIVATE_74_Z284_ADUOUTLET,Air,4
 Node,285,STORAGE_74_Z285_ADUOUTLET,Air,4
 Node,286,LOBBY_75_Z286_ADUOUTLET,Air,4
 Node,287,CONFERENCE_75_Z287_ADUOUTLET,Air,4
 Node,288,BREAK_ROOM_75_Z288_ADUOUTLET,Air,4
 Node,289,MECHANICAL_75_Z289_ADUOUTLET,Air,4
 Node,290,OFFICE_PRIVATE_75_Z290_ADUOUTLET,Air,4
 Node,291,LOBBY_76_Z291_ADUOUTLET,Air,4
 Node,292,CONFERENCE_76_Z292_ADUOUTLET,Air,4
 Node,293,OFFICE_OPEN_76_Z293_ADUOUTLET,Air,4
 Node,294,BREAK_ROOM_77_Z294_ADUOUTLET,Air,4
 Node,295,MECHANICAL_77_Z295_ADUOUTLET,Air,4
 Node,296,STORAGE_77_Z296_ADUOUTLET,Air,4
 Node,297,LOBBY_78_Z297_ADUOUTLET,Air,4
 Node,298,BREAK_ROOM_78_Z298_ADUOUTLET,Air,4
 Node,299,MECHANICAL_78_Z299_ADUOUTLET,Air,4
 Node,300,OFFICE_PRIVATE_78_Z300_ADUOUTLET,Air,4
 Node,301,LOBBY_79_Z301_ADUOUTLET,Air,4
 Node,302,CONFERENCE_79_Z302_ADUOUTLET,Air,4
 Node,303,MECHANICAL_79_Z303_ADUOUTLET,Air,4
 Node,304,OFFICE_PRIVATE_79_Z304_ADUOUTLET,Air,4
 Node,305,STORAGE_79_Z305_ADUOUTLET,Air,4
 Node,306,LOBBY_80_Z306_ADUOUTLET,Air,4
 Node,307,BREAK_ROOM_80_Z307_ADUOUTLET,Air,4
 Node,308,MECHANICAL_80_Z308_ADUOUTLET,Air,4
 Node,309,STORAGE_80_Z309_ADUOUTLET,Air,4
 Node,310,LOBBY_81_Z310_ADUOUTLET,Air,4
 Node,311,OFFICE_OPEN_81_Z311_ADUOUTLET,Air,4
 Node,312,OFFICE_PRIVATE_81_Z312_ADUOUTLET,Air,4
 Node,313,STORAGE_81_Z313_ADUOUTLET,Air,4
 Node,314,LOBBY_82_Z314_ADUOUTLET,Air,4
 Node,315,CONFERENCE_82_Z315_ADUOUTLET,Air,4
 Node,316,BREAK_ROOM_82_Z316_ADUOUTLET,Air,4
 Node,317,OFFICE_PRIVATE_82_Z317_ADUOUTLET,Air,4
 Node,318,STORAGE_82_Z318_ADUOUTLET,Air,4
 Node,319,LOBBY_83_Z319_ADUOUTLET,Air,4
 Node,320,CONFERENCE_83_Z320_ADUOUTLET,Air,4
 Node,321,OFFICE_OPEN_83_Z321_ADUOUTLET,Air,4
 Node,322,OFFICE_PRIVATE_83_Z322_ADUOUTLET,Air,4
 Node,323,STORAGE_83_Z323_ADUOUTLET,Air,4
 Node,324,BREAK_ROOM_84_Z324_ADUOUTLET,Air,4
 Node,325,OFFICE_PRIVATE_84_Z325_ADUOUTLET,Air,4
 Node,326,BREAK_ROOM_85_Z326_ADUOUTLET,Air,4
 Node,327,MECHANICAL_85_Z327_ADUOUTLET,Air,4
 Node,328,OFFICE_OPEN_85_Z328_ADUOUTLET,Air,4
 Node,329,CONFERENCE_86_Z329_ADUOUTLET,Air,4
 Node,330,MECHANICAL_86_Z330_ADUOUTLET,Air,4
 Node,331,OFFICE_PRIVATE_86_Z331_ADUOUTLET,Air,4
 Node,332,MECHANICAL_87_Z332_ADUOUTLET,Air,4
 Node,333,LOBBY_88_Z333_ADUOUTLET,Air,4
 Node,334,CONFERENCE_88_Z334_ADUOUTLET,Air,4
 Node,335,BREAK_ROOM_88_Z335_ADUOUTLET,Air,4
 Node,336,STORAGE_88_Z336_ADUOUTLET,Air,4
 Node,337,BREAK_ROOM_89_Z337_ADUOUTLET,Air,4
 Node,338,OFFICE_PRIVATE_89_Z338_ADUOUTLET,Air,4
 Node,339,BREAK_ROOM_90_Z339_ADUOUTLET,Air,4
 Node,340,OFFICE_PRIVATE_90_Z340_ADUOUTLET,Air,4
 Node,341,STORAGE_90_Z341_ADUOUTLET,Air,4
 Node,342,BREAK_ROOM_91_Z342_ADUOUTLET,Air,4
 Node,343,STORAGE_91_Z343_ADUOUTLET,Air,4
 Node,344,LOBBY_92_Z344_ADUOUTLET,Air,4
 Node,345,CONFERENCE_92_Z345_ADUOUTLET,Air,4
 Node,346,BREAK_ROOM_92_Z346_ADUOUTLET,Air,4
 Node,347,STORAGE_92_Z347_ADUOUTLET,Air,4
 Node,348,LOBBY_93_Z348_ADUOUTLET,Air,4
 Node,349,CONFERENCE_93_Z349_ADUOUTLET,Air,4
 Node,350,MECHANICAL_93_Z350_ADUOUTLET,Air,4
 Node,351,STORAGE_93_Z351_ADUOUTLET,Air,4
 Node,352,MECHANICAL_94_Z352_ADUOUTLET,Air,4
 Node,353,LOBBY_95_Z353_ADUOUTLET,Air,4
 Node,354,CONFERENCE_95_Z354_ADUOUTLET,Air,4
 Node,355,BREAK_ROOM_95_Z355_ADUOUTLET,Air,4
 Node,356,OFFICE_OPEN_95_Z356_ADUOUTLET,Air,4
 Node,357,STORAGE_95_Z357_ADUOUTLET,Air,4
 Node,358,CONFERENCE_96_Z358_ADUOUTLET,Air,4
 Node,359,BREAK_ROOM_96_Z359_ADUOUTLET,Air,4
 Node,360,MECHANICAL_96_Z360_ADUOUTLET,Air,4
 Node,361,OFFICE_PRIVATE_96_Z361_ADUOUTLET,Air,4
 Node,362,STORAGE_96_Z362_ADUOUTLET,Air,4
 Node,363,CONFERENCE_97_Z363_ADUOUTLET,Air,4
 Node,364,BREAK_ROOM_97_Z364_ADUOUTLET,Air,4
 Node,365,OFFICE_PRIVATE_97_Z365_ADUOUTLET,Air,4
 Node,366,CONFERENCE_98_Z366_ADUOUTLET,Air,4
 Node,367,BREAK_ROOM_98_Z367_ADUOUTLET,Air,4
 Node,368,OFFICE_OPEN_98_Z368_ADUOUTLET,Air,4
 Node,369,STORAGE_98_Z369_ADUOUTLET,Air,4
 Node,370,LOBBY_99_Z370_ADUOUTLET,Air,4
 Node,371,CONFERENCE_99_Z371_ADUOUTLET,Air,4
 Node,372,BREAK_ROOM_99_Z372_ADUOUTLET,Air,4
 Node,373,OFFICE_OPEN_99_Z373_ADUOUTLET,Air,4
 Node,374,STORAGE_99_Z374_ADUOUTLET,Air,4
 Node,375,CONFERENCE_100_Z375_ADUOUTLET,Air,4
 Node,376,BREAK_ROOM_100_Z376_ADUOUTLET,Air,4
 Node,377,MECHANICAL_100_Z377_ADUOUTLET,Air,4
 Node,378,LOBBY_101_Z378_ADUOUTLET,Air,4
 Node,379,BREAK_ROOM_101_Z379_ADUOUTLET,Air,4
 Node,380,OFFICE_OPEN_101_Z380_ADUOUTLET,Air,4
 Node,381,OFFICE_PRIVATE_101_Z381_ADUOUTLET,Air,4
 Node,382,STORAGE_101_Z382_ADUOUTLET,Air,4
 Node,383,LOBBY_102_Z383_ADUOUTLET,Air,4
 Node,384,BREAK_ROOM_102_Z384_ADUOUTLET,Air,4
 Node,385,LOBBY_103_Z385_ADUOUTLET,Air,4
 Node,386,BREAK_ROOM_103_Z386_ADUOUTLET,Air,4
 Node,387,MECHANICAL_103_Z387_ADUOUTLET,Air,4
 Node,388,OFFICE_PRIVATE_103_Z388_ADUOUTLET,Air,4
 Node,389,STORAGE_103_Z389_ADUOUTLET,Air,4
 Node,390,LOBBY_0_Z1_SUPPLYINLET,Air,3
 Node,391,LOBBY_0_Z1_COOLC-HEATCNODE,Air,6
 Node,392,LOBBY_0_Z1_HEATC-FANNODE,Air,5
 Node,393,LOBBY_0_Z1_SUPPLYEQUIPMENTOUTLETNODE,Air,3
 Node,394,MECHANICAL_0_Z2_SUPPLYINLET,Air,3
 Node,395,MECHANICAL_0_Z2_COOLC-HEATCNODE,Air,6
 Node,396,MECHANICAL_0_Z2_HEATC-FANNODE,Air,5
 Node,397,MECHANICAL_0_Z2_SUPPLYEQUIPMENTOUTLETNODE,Air,3
 Node,398,OFFICE_OPEN_0_Z3_SUPPLYINLET,Air,3
 Node,399,OFFICE_OPEN_0_Z3_COOLC-HEATCNODE,Air,6
 Node,400,OFFICE_OPEN_0_Z3_HEATC-FANNODE,Air,5
 Node,401,OFFICE_OPEN_0_Z3_SUPPLYEQUIPMENTOUTLETNODE,Air,3
 Node,402,LOBBY_1_Z4_SUPPLYINLET,Air,3
 Node,403,LOBBY_1_Z4_COOLC-HEATCNODE,Air,6
 Node,404,LOBBY_1_Z4_HEATC-FANNODE,Air,5
 Node,405,LOBBY_1_Z4_SUPPLYEQUIPMENTOUTLETNODE,Air,3
 Node,406,CONFERENCE_1_Z5_SUPPLYINLET,Air,3
 Node,407,CONFERENCE_1_Z5_COOLC-HEATCNODE,Air,6
 Node,408,CONFERENCE_1_Z5_HEATC-FANNODE,Air,5
 Node,409,CONFERENCE_1_Z5_SUPPLYEQUIPMENTOUTLETNODE,Air,3
 Node,410,MECHANICAL_1_Z6_SUPPLYINLET,Air,3
 Node,411,MECHANICAL_1_Z6_COOLC-HEATCNODE,Air,6
 Node,412,MECHANICAL_1_Z6_HEATC-FANNODE,Air,5
 Node,413,MECHANICAL_1_Z6_SUPPLYEQUIPMENTOUTLETNODE,Air,3
 Node,414,LOBBY_2_Z7_SUPPLYINLET,Air,3
 Node,415,LOBBY_2_Z7_COOLC-HEATCNODE,Air,6
 Node,416,LOBBY_2_Z7_HEATC-FANNODE,Air,5
 Node,417,LOBBY_2_Z7_SUPPLYEQUIPMENTOUTLETNODE,Air,3
 Node,418,CONFERENCE_2_Z8_SUPPLYINLET,Air,3
 Node,419,CONFERENCE_2_Z8_COOLC-HEATCNODE,Air,6
 Node,420,CONFERENCE_2_Z8_HEATC-FANNODE,Air,5
 Node,421,CONFERENCE_2_Z8_SUPPLYEQUIPMENTOUTLETNODE,Air,3
 Node,422,BREAK_ROOM_2_Z9_SUPPLYINLET,Air,3
 Node,423,BREAK_ROOM_2_Z9_COOLC-HEATCNODE,Air,6
 Node,424,BREAK_ROOM_2_Z9_HEATC-FANNODE,Air,5
 Node,425,BREAK_ROOM_2_Z9_SUPPLYEQUIPMENTOUTLETNODE,Air,3
 Node,426,MECHANICAL_2_Z10_SUPPLYINLET,Air,3
 Node,427,MECHANICAL_2_Z10_COOLC-HEATCNODE,Air,6
 Node,428,MECHANICAL_2_Z10_HEATC-FANNODE,Air,5
 Node,429,MECHANICAL_2_Z10_SUPPLYEQUIPMENTOUTLETNODE,Air,3
 Node,430,OFFICE_OPEN_2_Z11_SUPPLYINLET,Air,3
 Node,431,OFFICE_OPEN_2_Z11_COOLC-HEATCNODE,Air,6
 Node,432,OFFICE_OPEN_2_Z11_HEATC-FANNODE,Air,5
 Node,433,OFFICE_OPEN_2_Z11_SUPPLYEQUIPMENTOUTLETNODE,Air,3
 Node,434,OFFICE_PRIVATE_2_Z12_SUPPLYINLET,Air,3
 Node,435,OFFICE_PRIVATE_2_Z12_COOLC-HEATCNODE,Air,6
 Node,436,OFFICE_PRIVATE_2_Z12_HEATC-FANNODE,Air,5
 Node,437,OFFICE_PRIVATE_2_Z12_SUPPLYEQUIPMENTOUTLETNODE,Air,3
 Node,438,LOBBY_3_Z13_SUPPLYINLET,Air,3
 Node,439,LOBBY_3_Z13_COOLC-HEATCNODE,Air,6
 Node,440,LOBBY_3_Z13_HEATC-FANNODE,Air,5
 Node,441,LOBBY_3_Z13_SUPPLYEQUIPMENTOUTLETNODE,Air,3
 Node,442,CONFERENCE_3_Z14_SUPPLYINLET,Air,3
 Node,443,CONFERENCE_3_Z14_COOLC-HEATCNODE,Air,6
 Node,444,CONFERENCE_3_Z14_HEATC-FANNODE,Air,5
 Node,445,CONFERENCE_3_Z14_SUPPLYEQUIPMENTOUTLETNODE,Air,3
 Node,446,OFFICE_PRIVATE_3_Z15_SUPPLYINLET,Air,3
 Node,447,OFFICE_PRIVATE_3_Z15_COOLC-HEATCNODE,Air,6
 Node,448,OFFICE_PRIVATE_3_Z15_HEATC-FANNODE,Air,5
 Node,449,OFFICE_PRIVATE_3_Z15_SUPPLYEQUIPMENTOUTLETNODE,Air,3
 Node,450,STORAGE_3_Z16_SUPPLYINLET,Air,3
 Node,451,STORAGE_3_Z16_COOLC-HEATCNODE,Air,6
 Node,452,STORAGE_3_Z16_HEATC-FANNODE,Air,5
 Node,453,STORAGE_3_Z16_SUPPLYEQUIPMENTOUTLETNODE,Air,3
 Node,454,LOBBY_4_Z17_SUPPLYINLET,Air,3
 Node,455,LOBBY_4_Z17_COOLC-HEATCNODE,Air,6
 Node,456,LOBBY_4_Z17_HEATC-FANNODE,Air,5
 Node,457,LOBBY_4_Z17_SUPPLYEQUIPMENTOUTLETNODE,Air,3
 Node,458,CONFERENCE_4_Z18_SUPPLYINLET,Air,3
 Node,459,CONFERENCE_4_Z18_COOLC-HEATCNODE,Air,6
 Node,460,CONFERENCE_4_Z18_HEATC-FANNODE,Air,5
 Node,461,CONFERENCE_4_Z18_SUPPLYEQUIPMENTOUTLETNODE,Air,3
 Node,462,BREAK_ROOM_4_Z19_SUPPLYINLET,Air,3
 Node,463,BREAK_ROOM_4_Z19_COOLC-HEATCNODE,Air,6
 Node,464,BREAK_ROOM_4_Z19_HEATC-FANNODE,Air,5
 Node,465,BREAK_ROOM_4_Z19_SUPPLYEQUIPMENTOUTLETNODE,Air,3
 Node,466,MECHANICAL_4_Z20_SUPPLYINLET,Air,3
 Node,467,MECHANICAL_4_Z20_COOLC-HEATCNODE,Air,6
 Node,468,MECHANICAL_4_Z20_HEATC-FANNODE,Air,5
 Node,469,MECHANICAL_4_Z20_SUPPLYEQUIPMENTOUTLETNODE,Air,3
 Node,470,OFFICE_OPEN_4_Z21_SUPPLYINLET,Air,3
 Node,471,OFFICE_OPEN_4_Z21_COOLC-HEATCNODE,Air,6
 Node,472,OFFICE_OPEN_4_Z21_HEATC-FANNODE,Air,5
 Node,473,OFFICE_OPEN_4_Z21_SUPPLYEQUIPMENTOUTLETNODE,Air,3
 Node,474,OFFICE_PRIVATE_4_Z22_SUPPLYINLET,Air,3
 Node,475,OFFICE_PRIVATE_4_Z22_COOLC-HEATCNODE,Air,6
 Node,476,OFFICE_PRIVATE_4_Z22_HEATC-FANNODE,Air,5
 Node,477,OFFICE_PRIVATE_4_Z22_SUPPLYEQUIPMENTOUTLETNODE,Air,3
 Node,478,STORAGE_4_Z23_SUPPLYINLET,Air,3
 Node,479,STORAGE_4_Z23_COOLC-HEATCNODE,Air,6
 Node,480,STORAGE_4_Z23_HEATC-FANNODE,Air,5
 Node,481,STORAGE_4_Z23_SUPPLYEQUIPMENTOUTLETNODE,Air,3
 Node,482,LOBBY_5_Z24_SUPPLYINLET,Air,3
 Node,483,LOBBY_5_Z24_COOLC-HEATCNODE,Air,6
 Node,484,LOBBY_5_Z24_HEATC-FANNODE,Air,5
 Node,485,LOBBY_5_Z24_SUPPLYEQUIPMENTOUTLETNODE,Air,3
 Node,486,CONFERENCE_5_Z25_SUPPLYINLET,Air,3
 Node,487,CONFERENCE_5_Z25_COOLC-HEATCNODE,Air,6
 Node,488,CONFERENCE_5_Z25_HEATC-FANNODE,Air,5
 Node,489,CONFERENCE_5_Z25_SUPPLYEQUIPMENTOUTLETNODE,Air,3
 Node,490,BREAK_ROOM_5_Z26_SUPPLYINLET,Air,3
 Node,491,BREAK_ROOM_5_Z26_COOLC-HEATCNODE,Air,6
 Node,492,BREAK_ROOM_5_Z26_HEATC-FANNODE,Air,5
 Node,493,BREAK_ROOM_5_Z26_SUPPLYEQUIPMENTOUTLETNODE,Air,3
 Node,494,STORAGE_5_Z27_SUPPLYINLET,Air,3
 Node,495,STORAGE_5_Z27_COOLC-HEATCNODE,Air,6
 Node,496,STORAGE_5_Z27_HEATC-FANNODE,Air,5
 Node,497,STORAGE_5_Z27_SUPPLYEQUIPMENTOUTLETNODE,Air,3
 Node,498,LOBBY_6_Z28_SUPPLYINLET,Air,3
 Node,499,LOBBY_6_Z28_COOLC-HEATCNODE,Air,6
 Node,500,LOBBY_6_Z28_HEATC-FANNODE,Air,5
 Node,501,LOBBY_6_Z28_SUPPLYEQUIPMENTOUTLETNODE,Air,3
 Node,502,CONFERENCE_6_Z29_SUPPLYINLET,Air,3
 Node,503,CONFERENCE_6_Z29_COOLC-HEATCNODE,Air,6
 Node,504,CONFERENCE_6_Z29_HEATC-FANNODE,Air,5
 Node,505,CONFERENCE_6_Z29_SUPPLYEQUIPMENTOUTLETNODE,Air,3
 Node,506,BREAK_ROOM_6_Z30_SUPPLYINLET,Air,3
 Node,507,BREAK_ROOM_6_Z30_COOLC-HEATCNODE,Air,6
 Node,508,BREAK_ROOM_6_Z30_HEATC-FANNODE,Air,5
 Node,509,BREAK_ROOM_6_Z30_SUPPLYEQUIPMENTOUTLETNODE,Air,3
 Node,510,OFFICE_PRIVATE_6_Z31_SUPPLYINLET,Air,3
 Node,511,OFFICE_PRIVATE_6_Z31_COOLC-HEATCNODE,Air,6
 Node,512,OFFICE_PRIVATE_6_Z31_HEATC-FANNODE,Air,5
 Node,513,OFFICE_PRIVATE_6_Z31_SUPPLYEQUIPMENTOUTLETNODE,Air,3
 Node,514,STORAGE_6_Z32_SUPPLYINLET,Air,3
 Node,515,STORAGE_6_Z32_COOLC-HEATCNODE,Air,6
 Node,516,STORAGE_6_Z32_HEATC-FANNODE,Air,5
 Node,517,STORAGE_6_Z32_SUPPLYEQUIPMENTOUTLETNODE,Air,3
 Node,518,LOBBY_7_Z33_SUPPLYINLET,Air,3
 Node,519,LOBBY_7_Z33_COOLC-HEATCNODE,Air,6
 Node,520,LOBBY_7_Z33_HEATC-FANNODE,Air,5
 Node,521,LOBBY_7_Z33_SUPPLYEQUIPMENTOUTLETNODE,Air,3
 Node,522,CONFERENCE_7_Z34_SUPPLYINLET,Air,3
 Node,523,CONFERENCE_7_Z34_COOLC-HEATCNODE,Air,6
 Node,524,CONFERENCE_7_Z34_HEATC-FANNODE,Air,5
 Node,525,CONFERENCE_7_Z34_SUPPLYEQUIPMENTOUTLETNODE,Air,3
 Node,526,MECHANICAL_7_Z35_SUPPLYINLET,Air,3
 Node,527,MECHANICAL_7_Z35_COOLC-HEATCNODE,Air,6
 Node,528,MECHANICAL_7_Z35_HEATC-FANNODE,Air,5
 Node,529,MECHANICAL_7_Z35_SUPPLYEQUIPMENTOUTLETNODE,Air,3
 Node,530,STORAGE_7_Z36_SUPPLYINLET,Air,3
 Node,531,STORAGE_7_Z36_COOLC-HEATCNODE,Air,6
 Node,532,STORAGE_7_Z36_HEATC-FANNODE,Air,5
 Node,533,STORAGE_7_Z36_SUPPLYEQUIPMENTOUTLETNODE,Air,3
 Node,534,BREAK_ROOM_8_Z37_SUPPLYINLET,Air,3
 Node,535,BREAK_ROOM_8_Z37_COOLC-HEATCNODE,Air,6
 Node,536,BREAK_ROOM_8_Z37_HEATC-FANNODE,Air,5
 Node,537,BREAK_ROOM_8_Z37_SUPPLYEQUIPMENTOUTLETNODE,Air,3
 Node,538,OFFICE_OPEN_8_Z38_SUPPLYINLET,Air,3
 Node,539,OFFICE_OPEN_8_Z38_COOLC-HEATCNODE,Air,6
 Node,540,OFFICE_OPEN_8_Z38_HEATC-FANNODE,Air,5
 Node,541,OFFICE_OPEN_8_Z38_SUPPLYEQUIPMENTOUTLETNODE,Air,3
 Node,542,OFFICE_PRIVATE_8_Z39_SUPPLYINLET,Air,3
 Node,543,OFFICE_PRIVATE_8_Z39_COOLC-HEATCNODE,Air,6
 Node,544,OFFICE_PRIVATE_8_Z39_HEATC-FANNODE,Air,5
 Node,545,OFFICE_PRIVATE_8_Z39_SUPPLYEQUIPMENTOUTLETNODE,Air,3
 Node,546,STORAGE_8_Z40_SUPPLYINLET,Air,3
 Node,547,STORAGE_8_Z40_COOLC-HEATCNODE,Air,6
 Node,548,STORAGE_8_Z40_HEATC-FANNODE,Air,5
 Node,549,STORAGE_8_Z40_SUPPLYEQUIPMENTOUTLETNODE,Air,3
 Node,550,STORAGE_9_Z41_SUPPLYINLET,Air,3
 Node,551,STORAGE_9_Z41_COOLC-HEATCNODE,Air,6
 Node,552,STORAGE_9_Z41_HEATC-FANNODE,Air,5
 Node,553,STORAGE_9_Z41_SUPPLYEQUIPMENTOUTLETNODE,Air,3
 Node,554,CONFERENCE_10_Z42_SUPPLYINLET,Air,3
 Node,555,CONFERENCE_10_Z42_COOLC-HEATCNODE,Air,6
 Node,556,CONFERENCE_10_Z42_HEATC-FANNODE,Air,5
 Node,557,CONFERENCE_10_Z42_SUPPLYEQUIPMENTOUTLETNODE,Air,3
 Node,558,OFFICE_PRIVATE_10_Z43_SUPPLYINLET,Air,3
 Node,559,OFFICE_PRIVATE_10_Z43_COOLC-HEATCNODE,Air,6
 Node,560,OFFICE_PRIVATE_10_Z43_HEATC-FANNODE,Air,5
 Node,561,OFFICE_PRIVATE_10_Z43_SUPPLYEQUIPMENTOUTLETNODE,Air,3
 Node,562,STORAGE_10_Z44_SUPPLYINLET,Air,3
 Node,563,STORAGE_10_Z44_COOLC-HEATCNODE,Air,6
 Node,564,STORAGE_10_Z44_HEATC-FANNODE,Air,5
 Node,565,STORAGE_10_Z44_SUPPLYEQUIPMENTOUTLETNODE,Air,3
 Node,566,CONFERENCE_11_Z45_SUPPLYINLET,Air,3
 Node,567,CONFERENCE_11_Z45_COOLC-HEATCNODE,Air,6
 Node,568,CONFERENCE_11_Z45_HEATC-FANNODE,Air,5
 Node,569,CONFERENCE_11_Z45_SUPPLYEQUIPMENTOUTLETNODE,Air,3
 Node,570,BREAK_ROOM_11_Z46_SUPPLYINLET,Air,3
 Node,571,BREAK_ROOM_11_Z46_COOLC-HEATCNODE,Air,6
 Node,572,BREAK_ROOM_11_Z46_HEATC-FANNODE,Air,5
 Node,573,BREAK_ROOM_11_Z46_SUPPLYEQUIPMENTOUTLETNODE,Air,3
 Node,574,LOBBY_12_Z47_SUPPLYINLET,Air,3
 Node,575,LOBBY_12_Z47_COOLC-HEATCNODE,Air,6
 Node,576,LOBBY_12_Z47_HEATC-FANNODE,Air,5
 Node,577,LOBBY_12_Z47_SUPPLYEQUIPMENTOUTLETNODE,Air,3
 Node,578,CONFERENCE_12_Z48_SUPPLYINLET,Air,3
 Node,579,CONFERENCE_12_Z48_COOLC-HEATCNODE,Air,6
 Node,580,CONFERENCE_12_Z48_HEATC-FANNODE,Air,5
 Node,581,CONFERENCE_12_Z48_SUPPLYEQUIPMENTOUTLETNODE,Air,3
 Node,582,MECHANICAL_12_Z49_SUPPLYINLET,Air,3
 Node,583,MECHANICAL_12_Z49_COOLC-HEATCNODE,Air,6
 Node,584,MECHANICAL_12_Z49_HEATC-FANNODE,Air,5
 Node,585,MECHANICAL_12_Z49_SUPPLYEQUIPMENTOUTLETNODE,Air,3
 Node,586,STORAGE_12_Z50_SUPPLYINLET,Air,3
 Node,587,STORAGE_12_Z50_COOLC-HEATCNODE,Air,6
 Node,588,STORAGE_12_Z50_HEATC-FANNODE,Air,5
 Node,589,STORAGE_12_Z50_SUPPLYEQUIPMENTOUTLETNODE,Air,3
 Node,590,LOBBY_13_Z51_SUPPLYINLET,Air,3
 Node,591,LOBBY_13_Z51_COOLC-HEATCNODE,Air,6
 Node,592,LOBBY_13_Z51_HEATC-FANNODE,Air,5
 Node,593,LOBBY_13_Z51_SUPPLYEQUIPMENTOUTLETNODE,Air,3
 Node,594,CONFERENCE_13_Z52_SUPPLYINLET,Air,3
 Node,595,CONFERENCE_13_Z52_COOLC-HEATCNODE,Air,6
 Node,596,CONFERENCE_13_Z52_HEATC-FANNODE,Air,5
 Node,597,CONFERENCE_13_Z52_SUPPLYEQUIPMENTOUTLETNODE,Air,3
 Node,598,OFFICE_PRIVATE_13_Z53_SUPPLYINLET,Air,3
 Node,599,OFFICE_PRIVATE_13_Z53_COOLC-HEATCNODE,Air,6
 Node,600,OFFICE_PRIVATE_13_Z53_HEATC-FANNODE,Air,5
 Node,601,OFFICE_PRIVATE_13_Z53_SUPPLYEQUIPMENTOUTLETNODE,Air,3
 Node,602,STORAGE_13_Z54_SUPPLYINLET,Air,3
 Node,603,STORAGE_13_Z54_COOLC-HEATCNODE,Air,6
 Node,604,STORAGE_13_Z54_HEATC-FANNODE,Air,5
 Node,605,STORAGE_13_Z54_SUPPLYEQUIPMENTOUTLETNODE,Air,3
 Node,606,CONFERENCE_14_Z55_SUPPLYINLET,Air,3
 Node,607,CONFERENCE_14_Z55_COOLC-HEATCNODE,Air,6
 Node,608,CONFERENCE_14_Z55_HEATC-FANNODE,Air,5
 Node,609,CONFERENCE_14_Z55_SUPPLYEQUIPMENTOUTLETNODE,Air,3
 Node,610,BREAK_ROOM_14_Z56_SUPPLYINLET,Air,3
 Node,611,BREAK_ROOM_14_Z56_COOLC-HEATCNODE,Air,6
 Node,612,BREAK_ROOM_14_Z56_HEATC-FANNODE,Air,5
 Node,613,BREAK_ROOM_14_Z56_SUPPLYEQUIPMENTOUTLETNODE,Air,3
 Node,614,MECHANICAL_14_Z57_SUPPLYINLET,Air,3
 Node,615,MECHANICAL_14_Z57_COOLC-HEATCNODE,Air,6
 Node,616,MECHANICAL_14_Z57_HEATC-FANNODE,Air,5
 Node,617,MECHANICAL_14_Z57_SUPPLYEQUIPMENTOUTLETNODE,Air,3
 Node,618,OFFICE_OPEN_14_Z58_SUPPLYINLET,Air,3
 Node,619,OFFICE_OPEN_14_Z58_COOLC-HEATCNODE,Air,6
 Node,620,OFFICE_OPEN_14_Z58_HEATC-FANNODE,Air,5
 Node,621,OFFICE_OPEN_14_Z58_SUPPLYEQUIPMENTOUTLETNODE,Air,3
 Node,622,OFFICE_PRIVATE_14_Z59_SUPPLYINLET,Air,3
 Node,623,OFFICE_PRIVATE_14_Z59_COOLC-HEATCNODE,Air,6
 Node,624,OFFICE_PRIVATE_14_Z59_HEATC-FANNODE,Air,5
 Node,625,OFFICE_PRIVATE_14_Z59_SUPPLYEQUIPMENTOUTLETNODE,Air,3
 Node,626,CONFERENCE_15_Z60_SUPPLYINLET,Air,3
 Node,627,CONFERENCE_15_Z60_COOLC-HEATCNODE,Air,6
 Node,628,CONFERENCE_15_Z60_HEATC-FANNODE,Air,5
 Node,629,CONFERENCE_15_Z60_SUPPLYEQUIPMENTOUTLETNODE,Air,3
 Node,630,OFFICE_PRIVATE_15_Z61_SUPPLYINLET,Air,3
 Node,631,OFFICE_PRIVATE_15_Z61_COOLC-HEATCNODE,Air,6
 Node,632,OFFICE_PRIVATE_15_Z61_HEATC-FANNODE,Air,5
 Node,633,OFFICE_PRIVATE_15_Z61_SUPPLYEQUIPMENTOUTLETNODE,Air,3
 Node,634,CONFERENCE_16_Z62_SUPPLYINLET,Air,3
 Node,635,CONFERENCE_16_Z62_COOLC-HEATCNODE,Air,6
 Node,636,CONFERENCE_16_Z62_HEATC-FANNODE,Air,5
 Node,637,CONFERENCE_16_Z62_SUPPLYEQUIPMENTOUTLETNODE,Air,3
 Node,638,BREAK_ROOM_16_Z63_SUPPLYINLET,Air,3
 Node,639,BREAK_ROOM_16_Z63_COOLC-HEATCNODE,Air,6
 Node,640,BREAK_ROOM_16_Z63_HEATC-FANNODE,Air,5
 Node,641,BREAK_ROOM_16_Z63_SUPPLYEQUIPMENTOUTLETNODE,Air,3
 Node,642,OFFICE_PRIVATE_16_Z64_SUPPLYINLET,Air,3
 Node,643,OFFICE_PRIVATE_16_Z64_COOLC-HEATCNODE,Air,6
 Node,644,OFFICE_PRIVATE_16_Z64_HEATC-FANNODE,Air,5
 Node,645,OFFICE_PRIVATE_16_Z64_SUPPLYEQUIPMENTOUTLETNODE,Air,3
 Node,646,CONFERENCE_17_Z65_SUPPLYINLET,Air,3
 Node,647,CONFERENCE_17_Z65_COOLC-HEATCNODE,Air,6
 Node,648,CONFERENCE_17_Z65_HEATC-FANNODE,Air,5
 Node,649,CONFERENCE_17_Z65_SUPPLYEQUIPMENTOUTLETNODE,Air,3
 Node,650,BREAK_ROOM_17_Z66_SUPPLYINLET,Air,3
 Node,651,BREAK_ROOM_17_Z66_COOLC-HEATCNODE,Air,6
 Node,652,BREAK_ROOM_17_Z66_HEATC-FANNODE,Air,5
 Node,653,BREAK_ROOM_17_Z66_SUPPLYEQUIPMENTOUTLETNODE,Air,3
 Node,654,MECHANICAL_17_Z67_SUPPLYINLET,Air,3
 Node,655,MECHANICAL_17_Z67_COOLC-HEATCNODE,Air,6
 Node,656,MECHANICAL_17_Z67_HEATC-FANNODE,Air,5
 Node,657,MECHANICAL_17_Z67_SUPPLYEQUIPMENTOUTLETNODE,Air,3
 Node,658,OFFICE_OPEN_17_Z68_SUPPLYINLET,Air,3
 Node,659,OFFICE_OPEN_17_Z68_COOLC-HEATCNODE,Air,6
 Node,660,OFFICE_OPEN_17_Z68_HEATC-FANNODE,Air,5
 Node,661,OFFICE_OPEN_17_Z68_SUPPLYEQUIPMENTOUTLETNODE,Air,3
 Node,662,STORAGE_17_Z69_SUPPLYINLET,Air,3
 Node,663,STORAGE_17_Z69_COOLC-HEATCNODE,Air,6
 Node,664,STORAGE_17_Z69_HEATC-FANNODE,Air,5
 Node,665,STORAGE_17_Z69_SUPPLYEQUIPMENTOUTLETNODE,Air,3
 Node,666,BREAK_ROOM_18_Z70_SUPPLYINLET,Air,3
 Node,667,BREAK_ROOM_18_Z70_COOLC-HEATCNODE,Air,6
 Node,668,BREAK_ROOM_18_Z70_HEATC-FANNODE,Air,5
 Node,669,BREAK_ROOM_18_Z70_SUPPLYEQUIPMENTOUTLETNODE,Air,3
 Node,670,MECHANICAL_18_Z71_SUPPLYINLET,Air,3
 Node,671,MECHANICAL_18_Z71_COOLC-HEATCNODE,Air,6
 Node,672,MECHANICAL_18_Z71_HEATC-FANNODE,Air,5
 Node,673,MECHANICAL_18_Z71_SUPPLYEQUIPMENTOUTLETNODE,Air,3
 Node,674,OFFICE_PRIVATE_18_Z72_SUPPLYINLET,Air,3
 Node,675,OFFICE_PRIVATE_18_Z72_COOLC-HEATCNODE,Air,6
 Node,676,OFFICE_PRIVATE_18_Z72_HEATC-FANNODE,Air,5
 Node,677,OFFICE_PRIVATE_18_Z72_SUPPLYEQUIPMENTOUTLETNODE,Air,3
 Node,678,CONFERENCE_19_Z73_SUPPLYINLET,Air,3
 Node,679,CONFERENCE_19_Z73_COOLC-HEATCNODE,Air,6
 Node,680,CONFERENCE_19_Z73_HEATC-FANNODE,Air,5
 Node,681,CONFERENCE_19_Z73_SUPPLYEQUIPMENTOUTLETNODE,Air,3
 Node,682,MECHANICAL_19_Z74_SUPPLYINLET,Air,3
 Node,683,MECHANICAL_19_Z74_COOLC-HEATCNODE,Air,6
 Node,684,MECHANICAL_19_Z74_HEATC-FANNODE,Air,5
 Node,685,MECHANICAL_19_Z74_SUPPLYEQUIPMENTOUTLETNODE,Air,3
 Node,686,OFFICE_PRIVATE_19_Z75_SUPPLYINLET,Air,3
 Node,687,OFFICE_PRIVATE_19_Z75_COOLC-HEATCNODE,Air,6
 Node,688,OFFICE_PRIVATE_19_Z75_HEATC-FANNODE,Air,5
 Node,689,OFFICE_PRIVATE_19_Z75_SUPPLYEQUIPMENTOUTLETNODE,Air,3
 Node,690,LOBBY_20_Z76_SUPPLYINLET,Air,3
 Node,691,LOBBY_20_Z76_COOLC-HEATCNODE,Air,6
 Node,692,LOBBY_20_Z76_HEATC-FANNODE,Air,5
 Node,693,LOBBY_20_Z76_SUPPLYEQUIPMENTOUTLETNODE,Air,3
 Node,694,CONFERENCE_20_Z77_SUPPLYINLET,Air,3
 Node,695,CONFERENCE_20_Z77_COOLC-HEATCNODE,Air,6
 Node,696,CONFERENCE_20_Z77_HEATC-FANNODE,Air,5
 Node,697,CONFERENCE_20_Z77_SUPPLYEQUIPMENTOUTLETNODE,Air,3
 Node,698,BREAK_ROOM_20_Z78_SUPPLYINLET,Air,3
 Node,699,BREAK_ROOM_20_Z78_COOLC-HEATCNODE,Air,6
 Node,700,BREAK_ROOM_20_Z78_HEATC-FANNODE,Air,5
 Node,701,BREAK_ROOM_20_Z78_SUPPLYEQUIPMENTOUTLETNODE,Air,3
 Node,702,MECHANICAL_20_Z79_SUPPLYINLET,Air,3
 Node,703,MECHANICAL_20_Z79_COOLC-HEATCNODE,Air,6
 Node,704,MECHANICAL_20_Z79_HEATC-FANNODE,Air,5
 Node,705,MECHANICAL_20_Z79_SUPPLYEQUIPMENTOUTLETNODE,Air,3
 Node,706,OFFICE_OPEN_20_Z80_SUPPLYINLET,Air,3
 Node,707,OFFICE_OPEN_20_Z80_COOLC-HEATCNODE,Air,6
 Node,708,OFFICE_OPEN_20_Z80_HEATC-FANNODE,Air,5
 Node,709,OFFICE_OPEN_20_Z80_SUPPLYEQUIPMENTOUTLETNODE,Air,3
 Node,710,OFFICE_PRIVATE_20_Z81_SUPPLYINLET,Air,3
 Node,711,OFFICE_PRIVATE_20_Z81_COOLC-HEATCNODE,Air,6
 Node,712,OFFICE_PRIVATE_20_Z81_HEATC-FANNODE,Air,5
 Node,713,OFFICE_PRIVATE_20_Z81_SUPPLYEQUIPMENTOUTLETNODE,Air,3
 Node,714,CONFERENCE_21_Z82_SUPPLYINLET,Air,3
 Node,715,CONFERENCE_21_Z82_COOLC-HEATCNODE,Air,6
 Node,716,CONFERENCE_21_Z82_HEATC-FANNODE,Air,5
 Node,717,CONFERENCE_21_Z82_SUPPLYEQUIPMENTOUTLETNODE,Air,3
 Node,718,BREAK_ROOM_21_Z83_SUPPLYINLET,Air,3
 Node,719,BREAK_ROOM_21_Z83_COOLC-HEATCNODE,Air,6
 Node,720,BREAK_ROOM_21_Z83_HEATC-FANNODE,Air,5
 Node,721,BREAK_ROOM_21_Z83_SUPPLYEQUIPMENTOUTLETNODE,Air,3
 Node,722,MECHANICAL_21_Z84_SUPPLYINLET,Air,3
 Node,723,MECHANICAL_21_Z84_COOLC-HEATCNODE,Air,6
 Node,724,MECHANICAL_21_Z84_HEATC-FANNODE,Air,5
 Node,725,MECHANICAL_21_Z84_SUPPLYEQUIPMENTOUTLETNODE,Air,3
 Node,726,OFFICE_OPEN_21_Z85_SUPPLYINLET,Air,3
 Node,727,OFFICE_OPEN_21_Z85_COOLC-HEATCNODE,Air,6
 Node,728,OFFICE_OPEN_21_Z85_HEATC-FANNODE,Air,5
 Node,729,OFFICE_OPEN_21_Z85_SUPPLYEQUIPMENTOUTLETNODE,Air,3
 Node,730,STORAGE_21_Z86_SUPPLYINLET,Air,3
 Node,731,STORAGE_21_Z86_COOLC-HEATCNODE,Air,6
 Node,732,STORAGE_21_Z86_HEATC-FANNODE,Air,5
 Node,733,STORAGE_21_Z86_SUPPLYEQUIPMENTOUTLETNODE,Air,3
 Node,734,CONFERENCE_22_Z87_SUPPLYINLET,Air,3
 Node,735,CONFERENCE_22_Z87_COOLC-HEATCNODE,Air,6
 Node,736,CONFERENCE_22_Z87_HEATC-FANNODE,Air,5
 Node,737,CONFERENCE_22_Z87_SUPPLYEQUIPMENTOUTLETNODE,Air,3
 Node,738,BREAK_ROOM_22_Z88_SUPPLYINLET,Air,3
 Node,739,BREAK_ROOM_22_Z88_COOLC-HEATCNODE,Air,6
 Node,740,BREAK_ROOM_22_Z88_HEATC-FANNODE,Air,5
 Node,741,BREAK_ROOM_22_Z88_SUPPLYEQUIPMENTOUTLETNODE,Air,3
 Node,742,STORAGE_22_Z89_SUPPLYINLET,Air,3
 Node,743,STORAGE_22_Z89_COOLC-HEATCNODE,Air,6
 Node,744,STORAGE_22_Z89_HEATC-FANNODE,Air,5
 Node,745,STORAGE_22_Z89_SUPPLYEQUIPMENTOUTLETNODE,Air,3
 Node,746,LOBBY_23_Z90_SUPPLYINLET,Air,3
 Node,747,LOBBY_23_Z90_COOLC-HEATCNODE,Air,6
 Node,748,LOBBY_23_Z90_HEATC-FANNODE,Air,5
 Node,749,LOBBY_23_Z90_SUPPLYEQUIPMENTOUTLETNODE,Air,3
 Node,750,CONFERENCE_23_Z91_SUPPLYINLET,Air,3
 Node,751,CONFERENCE_23_Z91_COOLC-HEATCNODE,Air,6
 Node,752,CONFERENCE_23_Z91_HEATC-FANNODE,Air,5
 Node,753,CONFERENCE_23_Z91_SUPPLYEQUIPMENTOUTLETNODE,Air,3
 Node,754,MECHANICAL_23_Z92_SUPPLYINLET,Air,3
 Node,755,MECHANICAL_23_Z92_COOLC-HEATCNODE,Air,6
 Node,756,MECHANICAL_23_Z92_HEATC-FANNODE,Air,5
 Node,757,MECHANICAL_23_Z92_SUPPLYEQUIPMENTOUTLETNODE,Air,3
 Node,758,OFFICE_OPEN_23_Z93_SUPPLYINLET,Air,3
 Node,759,OFFICE_OPEN_23_Z93_COOLC-HEATCNODE,Air,6
 Node,760,OFFICE_OPEN_23_Z93_HEATC-FANNODE,Air,5
 Node,761,OFFICE_OPEN_23_Z93_SUPPLYEQUIPMENTOUTLETNODE,Air,3
 Node,762,OFFICE_PRIVATE_23_Z94_SUPPLYINLET,Air,3
 Node,763,OFFICE_PRIVATE_23_Z94_COOLC-HEATCNODE,Air,6
 Node,764,OFFICE_PRIVATE_23_Z94_HEATC-FANNODE,Air,5
 Node,765,OFFICE_PRIVATE_23_Z94_SUPPLYEQUIPMENTOUTLETNODE,Air,3
 Node,766,STORAGE_23_Z95_SUPPLYINLET,Air,3
 Node,767,STORAGE_23_Z95_COOLC-HEATCNODE,Air,6
 Node,768,STORAGE_23_Z95_HEATC-FANNODE,Air,5
 Node,769,STORAGE_23_Z95_SUPPLYEQUIPMENTOUTLETNODE,Air,3
 Node,770,LOBBY_24_Z96_SUPPLYINLET,Air,3
 Node,771,LOBBY_24_Z96_COOLC-HEATCNODE,Air,6
 Node,772,LOBBY_24_Z96_HEATC-FANNODE,Air,5
 Node,773,LOBBY_24_Z96_SUPPLYEQUIPMENTOUTLETNODE,Air,3
 Node,774,BREAK_ROOM_24_Z97_SUPPLYINLET,Air,3
 Node,775,BREAK_ROOM_24_Z97_COOLC-HEATCNODE,Air,6
 Node,776,BREAK_ROOM_24_Z97_HEATC-FANNODE,Air,5
 Node,777,BREAK_ROOM_24_Z97_SUPPLYEQUIPMENTOUTLETNODE,Air,3
 Node,778,MECHANICAL_24_Z98_SUPPLYINLET,Air,3
 Node,779,MECHANICAL_24_Z98_COOLC-HEATCNODE,Air,6
 Node,780,MECHANICAL_24_Z98_HEATC-FANNODE,Air,5
 Node,781,MECHANICAL_24_Z98_SUPPLYEQUIPMENTOUTLETNODE,Air,3
 Node,782,OFFICE_OPEN_24_Z99_SUPPLYINLET,Air,3
 Node,783,OFFICE_OPEN_24_Z99_COOLC-HEATCNODE,Air,6
 Node,784,OFFICE_OPEN_24_Z99_HEATC-FANNODE,Air,5
 Node,785,OFFICE_OPEN_24_Z99_SUPPLYEQUIPMENTOUTLETNODE,Air,3
 Node,786,LOBBY_25_Z100_SUPPLYINLET,Air,3
 Node,787,LOBBY_25_Z100_COOLC-HEATCNODE,Air,6
 Node,788,LOBBY_25_Z100_HEATC-FANNODE,Air,5
 Node,789,LOBBY_25_Z100_SUPPLYEQUIPMENTOUTLETNODE,Air,3
 Node,790,CONFERENCE_25_Z101_SUPPLYINLET,Air,3
 Node,791,CONFERENCE_25_Z101_COOLC-HEATCNODE,Air,6
 Node,792,CONFERENCE_25_Z101_HEATC-FANNODE,Air,5
 Node,793,CONFERENCE_25_Z101_SUPPLYEQUIPMENTOUTLETNODE,Air,3
 Node,794,BREAK_ROOM_25_Z102_SUPPLYINLET,Air,3
 Node,795,BREAK_ROOM_25_Z102_COOLC-HEATCNODE,Air,6
 Node,796,BREAK_ROOM_25_Z102_HEATC-FANNODE,Air,5
 Node,797,BREAK_ROOM_25_Z102_SUPPLYEQUIPMENTOUTLETNODE,Air,3
 Node,798,OFFICE_PRIVATE_25_Z103_SUPPLYINLET,Air,3
 Node,799,OFFICE_PRIVATE_25_Z103_COOLC-HEATCNODE,Air,6
 Node,800,OFFICE_PRIVATE_25_Z103_HEATC-FANNODE,Air,5
 Node,801,OFFICE_PRIVATE_25_Z103_SUPPLYEQUIPMENTOUTLETNODE,Air,3
 Node,802,STORAGE_25_Z104_SUPPLYINLET,Air,3
 Node,803,STORAGE_25_Z104_COOLC-HEATCNODE,Air,6
 Node,804,STORAGE_25_Z104_HEATC-FANNODE,Air,5
 Node,805,STORAGE_25_Z104_SUPPLYEQUIPMENTOUTLETNODE,Air,3
 Node,806,LOBBY_26_Z105_SUPPLYINLET,Air,3
 Node,807,LOBBY_26_Z105_COOLC-HEATCNODE,Air,6
 Node,808,LOBBY_26_Z105_HEATC-FANNODE,Air,5
 Node,809,LOBBY_26_Z105_SUPPLYEQUIPMENTOUTLETNODE,Air,3
 Node,810,BREAK_ROOM_26_Z106_SUPPLYINLET,Air,3
 Node,811,BREAK_ROOM_26_Z106_COOLC-HEATCNODE,Air,6
 Node,812,BREAK_ROOM_26_Z106_HEATC-FANNODE,Air,5
 Node,813,BREAK_ROOM_26_Z106_SUPPLYEQUIPMENTOUTLETNODE,Air,3
 Node,814,OFFICE_OPEN_26_Z107_SUPPLYINLET,Air,3
 Node,815,OFFICE_OPEN_26_Z107_COOLC-HEATCNODE,Air,6
 Node,816,OFFICE_OPEN_26_Z107_HEATC-FANNODE,Air,5
 Node,817,OFFICE_OPEN_26_Z107_SUPPLYEQUIPMENTOUTLETNODE,Air,3
 Node,818,STORAGE_26_Z108_SUPPLYINLET,Air,3
 Node,819,STORAGE_26_Z108_COOLC-HEATCNODE,Air,6
 Node,820,STORAGE_26_Z108_HEATC-FANNODE,Air,5
 Node,821,STORAGE_26_Z108_SUPPLYEQUIPMENTOUTLETNODE,Air,3
 Node,822,LOBBY_27_Z109_SUPPLYINLET,Air,3
 Node,823,LOBBY_27_Z109_COOLC-HEATCNODE,Air,6
 Node,824,LOBBY_27_Z109_HEATC-FANNODE,Air,5
 Node,825,LOBBY_27_Z109_SUPPLYEQUIPMENTOUTLETNODE,Air,3
 Node,826,BREAK_ROOM_27_Z110_SUPPLYINLET,Air,3
 Node,827,BREAK_ROOM_27_Z110_COOLC-HEATCNODE,Air,6
 Node,828,BREAK_ROOM_27_Z110_HEATC-FANNODE,Air,5
 Node,829,BREAK_ROOM_27_Z110_SUPPLYEQUIPMENTOUTLETNODE,Air,3
 Node,830,MECHANICAL_27_Z111_SUPPLYINLET,Air,3
 Node,831,MECHANICAL_27_Z111_COOLC-HEATCNODE,Air,6
 Node,832,MECHANICAL_27_Z111_HEATC-FANNODE,Air,5
 Node,833,MECHANICAL_27_Z111_SUPPLYEQUIPMENTOUTLETNODE,Air,3
 Node,834,LOBBY_28_Z112_SUPPLYINLET,Air,3
 Node,835,LOBBY_28_Z112_COOLC-HEATCNODE,Air,6
 Node,836,LOBBY_28_Z112_HEATC-FANNODE,Air,5
 Node,837,LOBBY_28_Z112_SUPPLYEQUIPMENTOUTLETNODE,Air,3
 Node,838,BREAK_ROOM_28_Z113_SUPPLYINLET,Air,3
 Node,839,BREAK_ROOM_28_Z113_COOLC-HEATCNODE,Air,6
 Node,840,BREAK_ROOM_28_Z113_HEATC-FANNODE,Air,5
 Node,841,BREAK_ROOM_28_Z113_SUPPLYEQUIPMENTOUTLETNODE,Air,3
 Node,842,MECHANICAL_28_Z114_SUPPLYINLET,Air,3
 Node,843,MECHANICAL_28_Z114_COOLC-HEATCNODE,Air,6
 Node,844,MECHANICAL_28_Z114_HEATC-FANNODE,Air,5
 Node,845,MECHANICAL_28_Z114_SUPPLYEQUIPMENTOUTLETNODE,Air,3
 Node,846,OFFICE_PRIVATE_28_Z115_SUPPLYINLET,Air,3
 Node,847,OFFICE_PRIVATE_28_Z115_COOLC-HEATCNODE,Air,6
 Node,848,OFFICE_PRIVATE_28_Z115_HEATC-FANNODE,Air,5
 Node,849,OFFICE_PRIVATE_28_Z115_SUPPLYEQUIPMENTOUTLETNODE,Air,3
 Node,850,LOBBY_29_Z116_SUPPLYINLET,Air,3
 Node,851,LOBBY_29_Z116_COOLC-HEATCNODE,Air,6
 Node,852,LOBBY_29_Z116_HEATC-FANNODE,Air,5
 Node,853,LOBBY_29_Z116_SUPPLYEQUIPMENTOUTLETNODE,Air,3
 Node,854,CONFERENCE_29_Z117_SUPPLYINLET,Air,3
 Node,855,CONFERENCE_29_Z117_COOLC-HEATCNODE,Air,6
 Node,856,CONFERENCE_29_Z117_HEATC-FANNODE,Air,5
 Node,857,CONFERENCE_29_Z117_SUPPLYEQUIPMENTOUTLETNODE,Air,3
 Node,858,MECHANICAL_29_Z118_SUPPLYINLET,Air,3
 Node,859,MECHANICAL_29_Z118_COOLC-HEATCNODE,Air,6
 Node,860,MECHANICAL_29_Z118_HEATC-FANNODE,Air,5
 Node,861,MECHANICAL_29_Z118_SUPPLYEQUIPMENTOUTLETNODE,Air,3
 Node,862,STORAGE_29_Z119_SUPPLYINLET,Air,3
 Node,863,STORAGE_29_Z119_COOLC-HEATCNODE,Air,6
 Node,864,STORAGE_29_Z119_HEATC-FANNODE,Air,5
 Node,865,STORAGE_29_Z119_SUPPLYEQUIPMENTOUTLETNODE,Air,3
 Node,866,CONFERENCE_30_Z120_SUPPLYINLET,Air,3
 Node,867,CONFERENCE_30_Z120_COOLC-HEATCNODE,Air,6
 Node,868,CONFERENCE_30_Z120_HEATC-FANNODE,Air,5
 Node,869,CONFERENCE_30_Z120_SUPPLYEQUIPMENTOUTLETNODE,Air,3
 Node,870,BREAK_ROOM_30_Z121_SUPPLYINLET,Air,3
 Node,871,BREAK_ROOM_30_Z121_COOLC-HEATCNODE,Air,6
 Node,872,BREAK_ROOM_30_Z121_HEATC-FANNODE,Air,5
 Node,873,BREAK_ROOM_30_Z121_SUPPLYEQUIPMENTOUTLETNODE,Air,3
 Node,874,LOBBY_31_Z122_SUPPLYINLET,Air,3
 Node,875,LOBBY_31_Z122_COOLC-HEATCNODE,Air,6
 Node,876,LOBBY_31_Z122_HEATC-FANNODE,Air,5
 Node,877,LOBBY_31_Z122_SUPPLYEQUIPMENTOUTLETNODE,Air,3
 Node,878,CONFERENCE_31_Z123_SUPPLYINLET,Air,3
 Node,879,CONFERENCE_31_Z123_COOLC-HEATCNODE,Air,6
 Node,880,CONFERENCE_31_Z123_HEATC-FANNODE,Air,5
 Node,881,CONFERENCE_31_Z123_SUPPLYEQUIPMENTOUTLETNODE,Air,3
 Node,882,MECHANICAL_31_Z124_SUPPLYINLET,Air,3
 Node,883,MECHANICAL_31_Z124_COOLC-HEATCNODE,Air,6
 Node,884,MECHANICAL_31_Z124_HEATC-FANNODE,Air,5
 Node,885,MECHANICAL_31_Z124_SUPPLYEQUIPMENTOUTLETNODE,Air,3
 Node,886,OFFICE_PRIVATE_31_Z125_SUPPLYINLET,Air,3
 Node,887,OFFICE_PRIVATE_31_Z125_COOLC-HEATCNODE,Air,6
 Node,888,OFFICE_PRIVATE_31_Z125_HEATC-FANNODE,Air,5
 Node,889,OFFICE_PRIVATE_31_Z125_SUPPLYEQUIPMENTOUTLETNODE,Air,3
 Node,890,STORAGE_31_Z126_SUPPLYINLET,Air,3
 Node,891,STORAGE_31_Z126_COOLC-HEATCNODE,Air,6
 Node,892,STORAGE_31_Z126_HEATC-FANNODE,Air,5
 Node,893,STORAGE_31_Z126_SUPPLYEQUIPMENTOUTLETNODE,Air,3
 Node,894,MECHANICAL_32_Z127_SUPPLYINLET,Air,3
 Node,895,MECHANICAL_32_Z127_COOLC-HEATCNODE,Air,6
 Node,896,MECHANICAL_32_Z127_HEATC-FANNODE,Air,5
 Node,897,MECHANICAL_32_Z127_SUPPLYEQUIPMENTOUTLETNODE,Air,3
 Node,898,STORAGE_32_Z128_SUPPLYINLET,Air,3
 Node,899,STORAGE_32_Z128_COOLC-HEATCNODE,Air,6
 Node,900,STORAGE_32_Z128_HEATC-FANNODE,Air,5
 Node,901,STORAGE_32_Z128_SUPPLYEQUIPMENTOUTLETNODE,Air,3
 Node,902,CONFERENCE_33_Z129_SUPPLYINLET,Air,3
 Node,903,CONFERENCE_33_Z129_COOLC-HEATCNODE,Air,6
 Node,904,CONFERENCE_33_Z129_HEATC-FANNODE,Air,5
 Node,905,CONFERENCE_33_Z129_SUPPLYEQUIPMENTOUTLETNODE,Air,3
 Node,906,MECHANICAL_33_Z130_SUPPLYINLET,Air,3
 Node,907,MECHANICAL_33_Z130_COOLC-HEATCNODE,Air,6
 Node,908,MECHANICAL_33_Z130_HEATC-FANNODE,Air,5
 Node,909,MECHANICAL_33_Z130_SUPPLYEQUIPMENTOUTLETNODE,Air,3
 Node,910,OFFICE_OPEN_33_Z131_SUPPLYINLET,Air,3
 Node,911,OFFICE_OPEN_33_Z131_COOLC-HEATCNODE,Air,6
 Node,912,OFFICE_OPEN_33_Z131_HEATC-FANNODE,Air,5
 Node,913,OFFICE_OPEN_33_Z131_SUPPLYEQUIPMENTOUTLETNODE,Air,3
 Node,914,OFFICE_PRIVATE_34_Z132_SUPPLYINLET,Air,3
 Node,915,OFFICE_PRIVATE_34_Z132_COOLC-HEATCNODE,Air,6
 Node,916,OFFICE_PRIVATE_34_Z132_HEATC-FANNODE,Air,5
 Node,917,OFFICE_PRIVATE_34_Z132_SUPPLYEQUIPMENTOUTLETNODE,Air,3
 Node,918,BREAK_ROOM_35_Z133_SUPPLYINLET,Air,3
 Node,919,BREAK_ROOM_35_Z133_COOLC-HEATCNODE,Air,6
 Node,920,BREAK_ROOM_35_Z133_HEATC-FANNODE,Air,5
 Node,921,BREAK_ROOM_35_Z133_SUPPLYEQUIPMENTOUTLETNODE,Air,3
 Node,922,MECHANICAL_35_Z134_SUPPLYINLET,Air,3
 Node,923,MECHANICAL_35_Z134_COOLC-HEATCNODE,Air,6
 Node,924,MECHANICAL_35_Z134_HEATC-FANNODE,Air,5
 Node,925,MECHANICAL_35_Z134_SUPPLYEQUIPMENTOUTLETNODE,Air,3
 Node,926,STORAGE_35_Z135_SUPPLYINLET,Air,3
 Node,927,STORAGE_35_Z135_COOLC-HEATCNODE,Air,6
 Node,928,STORAGE_35_Z135_HEATC-FANNODE,Air,5
 Node,929,STORAGE_35_Z135_SUPPLYEQUIPMENTOUTLETNODE,Air,3
 Node,930,CONFERENCE_36_Z136_SUPPLYINLET,Air,3
 Node,931,CONFERENCE_36_Z136_COOLC-HEATCNODE,Air,6
 Node,932,CONFERENCE_36_Z136_HEATC-FANNODE,Air,5
 Node,933,CONFERENCE_36_Z136_SUPPLYEQUIPMENTOUTLETNODE,Air,3
 Node,934,BREAK_ROOM_36_Z137_SUPPLYINLET,Air,3
 Node,935,BREAK_ROOM_36_Z137_COOLC-HEATCNODE,Air,6
 Node,936,BREAK_ROOM_36_Z137_HEATC-FANNODE,Air,5
 Node,937,BREAK_ROOM_36_Z137_SUPPLYEQUIPMENTOUTLETNODE,Air,3
 Node,938,MECHANICAL_36_Z138_SUPPLYINLET,Air,3
 Node,939,MECHANICAL_36_Z138_COOLC-HEATCNODE,Air,6
 Node,940,MECHANICAL_36_Z138_HEATC-FANNODE,Air,5
 Node,941,MECHANICAL_36_Z138_SUPPLYEQUIPMENTOUTLETNODE,Air,3
 Node,942,OFFICE_OPEN_36_Z139_SUPPLYINLET,Air,3
 Node,943,OFFICE_OPEN_36_Z139_COOLC-HEATCNODE,Air,6
 Node,944,OFFICE_OPEN_36_Z139_HEATC-FANNODE,Air,5
 Node,945,OFFICE_OPEN_36_Z139_SUPPLYEQUIPMENTOUTLETNODE,Air,3
 Node,946,CONFERENCE_37_Z140_SUPPLYINLET,Air,3
 Node,947,CONFERENCE_37_Z140_COOLC-HEATCNODE,Air,6
 Node,948,CONFERENCE_37_Z140_HEATC-FANNODE,Air,5
 Node,949,CONFERENCE_37_Z140_SUPPLYEQUIPMENTOUTLETNODE,Air,3
 Node,950,BREAK_ROOM_37_Z141_SUPPLYINLET,Air,3
 Node,951,BREAK_ROOM_37_Z141_COOLC-HEATCNODE,Air,6
 Node,952,BREAK_ROOM_37_Z141_HEATC-FANNODE,Air,5
 Node,953,BREAK_ROOM_37_Z141_SUPPLYEQUIPMENTOUTLETNODE,Air,3
 Node,954,OFFICE_PRIVATE_37_Z142_SUPPLYINLET,Air,3
 Node,955,OFFICE_PRIVATE_37_Z142_COOLC-HEATCNODE,Air,6
 Node,956,OFFICE_PRIVATE_37_Z142_HEATC-FANNODE,Air,5
 Node,957,OFFICE_PRIVATE_37_Z142_SUPPLYEQUIPMENTOUTLETNODE,Air,3
 Node,958,STORAGE_37_Z143_SUPPLYINLET,Air,3
 Node,959,STORAGE_37_Z143_COOLC-HEATCNODE,Air,6
 Node,960,STORAGE_37_Z143_HEATC-FANNODE,Air,5
 Node,961,STORAGE_37_Z143_SUPPLYEQUIPMENTOUTLETNODE,Air,3
 Node,962,CONFERENCE_38_Z144_SUPPLYINLET,Air,3
 Node,963,CONFERENCE_38_Z144_COOLC-HEATCNODE,Air,6
 Node,964,CONFERENCE_38_Z144_HEATC-FANNODE,Air,5
 Node,965,CONFERENCE_38_Z144_SUPPLYEQUIPMENTOUTLETNODE,Air,3
 Node,966,BREAK_ROOM_38_Z145_SUPPLYINLET,Air,3
 Node,967,BREAK_ROOM_38_Z145_COOLC-HEATCNODE,Air,6
 Node,968,BREAK_ROOM_38_Z145_HEATC-FANNODE,Air,5
 Node,969,BREAK_ROOM_38_Z145_SUPPLYEQUIPMENTOUTLETNODE,Air,3
 Node,970,MECHANICAL_38_Z146_SUPPLYINLET,Air,3
 Node,971,MECHANICAL_38_Z146_COOLC-HEATCNODE,Air,6
 Node,972,MECHANICAL_38_Z146_HEATC-FANNODE,Air,5
 Node,973,MECHANICAL_38_Z146_SUPPLYEQUIPMENTOUTLETNODE,Air,3
 Node,974,OFFICE_OPEN_38_Z147_SUPPLYINLET,Air,3
 Node,975,OFFICE_OPEN_38_Z147_COOLC-HEATCNODE,Air,6
 Node,976,OFFICE_OPEN_38_Z147_HEATC-FANNODE,Air,5
 Node,977,OFFICE_OPEN_38_Z147_SUPPLYEQUIPMENTOUTLETNODE,Air,3
 Node,978,OFFICE_PRIVATE_38_Z148_SUPPLYINLET,Air,3
 Node,979,OFFICE_PRIVATE_38_Z148_COOLC-HEATCNODE,Air,6
 Node,980,OFFICE_PRIVATE_38_Z148_HEATC-FANNODE,Air,5
 Node,981,OFFICE_PRIVATE_38_Z148_SUPPLYEQUIPMENTOUTLETNODE,Air,3
 Node,982,CONFERENCE_39_Z149_SUPPLYINLET,Air,3
 Node,983,CONFERENCE_39_Z149_COOLC-HEATCNODE,Air,6
 Node,984,CONFERENCE_39_Z149_HEATC-FANNODE,Air,5
 Node,985,CONFERENCE_39_Z149_SUPPLYEQUIPMENTOUTLETNODE,Air,3
 Node,986,BREAK_ROOM_39_Z150_SUPPLYINLET,Air,3
 Node,987,BREAK_ROOM_39_Z150_COOLC-HEATCNODE,Air,6
 Node,988,BREAK_ROOM_39_Z150_HEATC-FANNODE,Air,5
 Node,989,BREAK_ROOM_39_Z150_SUPPLYEQUIPMENTOUTLETNODE,Air,3
 Node,990,MECHANICAL_39_Z151_SUPPLYINLET,Air,3
 Node,991,MECHANICAL_39_Z151_COOLC-HEATCNODE,Air,6
 Node,992,MECHANICAL_39_Z151_HEATC-FANNODE,Air,5
 Node,993,MECHANICAL_39_Z151_SUPPLYEQUIPMENTOUTLETNODE,Air,3
 Node,994,OFFICE_PRIVATE_39_Z152_SUPPLYINLET,Air,3
 Node,995,OFFICE_PRIVATE_39_Z152_COOLC-HEATCNODE,Air,6
 Node,996,OFFICE_PRIVATE_39_Z152_HEATC-FANNODE,Air,5
 Node,997,OFFICE_PRIVATE_39_Z152_SUPPLYEQUIPMENTOUTLETNODE,Air,3
 Node,998,STORAGE_39_Z153_SUPPLYINLET,Air,3
 Node,999,STORAGE_39_Z153_COOLC-HEATCNODE,Air,6
 Node,1000,STORAGE_39_Z153_HEATC-FANNODE,Air,5
 Node,1001,STORAGE_39_Z153_SUPPLYEQUIPMENTOUTLETNODE,Air,3
 Node,1002,LOBBY_40_Z154_SUPPLYINLET,Air,3
 Node,1003,LOBBY_40_Z154_COOLC-HEATCNODE,Air,6
 Node,1004,LOBBY_40_Z154_HEATC-FANNODE,Air,5
 Node,1005,LOBBY_40_Z154_SUPPLYEQUIPMENTOUTLETNODE,Air,3
 Node,1006,CONFERENCE_40_Z155_SUPPLYINLET,Air,3
 Node,1007,CONFERENCE_40_Z155_COOLC-HEATCNODE,Air,6
 Node,1008,CONFERENCE_40_Z155_HEATC-FANNODE,Air,5
 Node,1009,CONFERENCE_40_Z155_SUPPLYEQUIPMENTOUTLETNODE,Air,3
 Node,1010,BREAK_ROOM_40_Z156_SUPPLYINLET,Air,3
 Node,1011,BREAK_ROOM_40_Z156_COOLC-HEATCNODE,Air,6
 Node,1012,BREAK_ROOM_40_Z156_HEATC-FANNODE,Air,5
 Node,1013,BREAK_ROOM_40_Z156_SUPPLYEQUIPMENTOUTLETNODE,Air,3
 Node,1014,MECHANICAL_40_Z157_SUPPLYINLET,Air,3
 Node,1015,MECHANICAL_40_Z157_COOLC-HEATCNODE,Air,6
 Node,1016,MECHANICAL_40_Z157_HEATC-FANNODE,Air,5
 Node,1017,MECHANICAL_40_Z157_SUPPLYEQUIPMENTOUTLETNODE,Air,3
 Node,1018,OFFICE_OPEN_40_Z158_SUPPLYINLET,Air,3
 Node,1019,OFFICE_OPEN_40_Z158_COOLC-HEATCNODE,Air,6
 Node,1020,OFFICE_OPEN_40_Z158_HEATC-FANNODE,Air,5
 Node,1021,OFFICE_OPEN_40_Z158_SUPPLYEQUIPMENTOUTLETNODE,Air,3
 Node,1022,STORAGE_40_Z159_SUPPLYINLET,Air,3
 Node,1023,STORAGE_40_Z159_COOLC-HEATCNODE,Air,6
 Node,1024,STORAGE_40_Z159_HEATC-FANNODE,Air,5
 Node,1025,STORAGE_40_Z159_SUPPLYEQUIPMENTOUTLETNODE,Air,3
 Node,1026,CONFERENCE_41_Z160_SUPPLYINLET,Air,3
 Node,1027,CONFERENCE_41_Z160_COOLC-HEATCNODE,Air,6
 Node,1028,CONFERENCE_41_Z160_HEATC-FANNODE,Air,5
 Node,1029,CONFERENCE_41_Z160_SUPPLYEQUIPMENTOUTLETNODE,Air,3
 Node,1030,MECHANICAL_41_Z161_SUPPLYINLET,Air,3
 Node,1031,MECHANICAL_41_Z161_COOLC-HEATCNODE,Air,6
 Node,1032,MECHANICAL_41_Z161_HEATC-FANNODE,Air,5
 Node,1033,MECHANICAL_41_Z161_SUPPLYEQUIPMENTOUTLETNODE,Air,3
 Node,1034,OFFICE_OPEN_41_Z162_SUPPLYINLET,Air,3
 Node,1035,OFFICE_OPEN_41_Z162_COOLC-HEATCNODE,Air,6
 Node,1036,OFFICE_OPEN_41_Z162_HEATC-FANNODE,Air,5
 Node,1037,OFFICE_OPEN_41_Z162_SUPPLYEQUIPMENTOUTLETNODE,Air,3
 Node,1038,OFFICE_PRIVATE_41_Z163_SUPPLYINLET,Air,3
 Node,1039,OFFICE_PRIVATE_41_Z163_COOLC-HEATCNODE,Air,6
 Node,1040,OFFICE_PRIVATE_41_Z163_HEATC-FANNODE,Air,5
 Node,1041,OFFICE_PRIVATE_41_Z163_SUPPLYEQUIPMENTOUTLETNODE,Air,3
 Node,1042,STORAGE_41_Z164_SUPPLYINLET,Air,3
 Node,1043,STORAGE_41_Z164_COOLC-HEATCNODE,Air,6
 Node,1044,STORAGE_41_Z164_HEATC-FANNODE,Air,5
 Node,1045,STORAGE_41_Z164_SUPPLYEQUIPMENTOUTLETNODE,Air,3
 Node,1046,LOBBY_42_Z165_SUPPLYINLET,Air,3
 Node,1047,LOBBY_42_Z165_COOLC-HEATCNODE,Air,6
 Node,1048,LOBBY_42_Z165_HEATC-FANNODE,Air,5
 Node,1049,LOBBY_42_Z165_SUPPLYEQUIPMENTOUTLETNODE,Air,3
 Node,1050,CONFERENCE_42_Z166_SUPPLYINLET,Air,3
 Node,1051,CONFERENCE_42_Z166_COOLC-HEATCNODE,Air,6
 Node,1052,CONFERENCE_42_Z166_HEATC-FANNODE,Air,5
 Node,1053,CONFERENCE_42_Z166_SUPPLYEQUIPMENTOUTLETNODE,Air,3
 Node,1054,MECHANICAL_42_Z167_SUPPLYINLET,Air,3
 Node,1055,MECHANICAL_42_Z167_COOLC-HEATCNODE,Air,6
 Node,1056,MECHANICAL_42_Z167_HEATC-FANNODE,Air,5
 Node,1057,MECHANICAL_42_Z167_SUPPLYEQUIPMENTOUTLETNODE,Air,3
 Node,1058,OFFICE_OPEN_42_Z168_SUPPLYINLET,Air,3
 Node,1059,OFFICE_OPEN_42_Z168_COOLC-HEATCNODE,Air,6
 Node,1060,OFFICE_OPEN_42_Z168_HEATC-FANNODE,Air,5
 Node,1061,OFFICE_OPEN_42_Z168_SUPPLYEQUIPMENTOUTLETNODE,Air,3
 Node,1062,LOBBY_43_Z169_SUPPLYINLET,Air,3
 Node,1063,LOBBY_43_Z169_COOLC-HEATCNODE,Air,6
 Node,1064,LOBBY_43_Z169_HEATC-FANNODE,Air,5
 Node,1065,LOBBY_43_Z169_SUPPLYEQUIPMENTOUTLETNODE,Air,3
 Node,1066,BREAK_ROOM_43_Z170_SUPPLYINLET,Air,3
 Node,1067,BREAK_ROOM_43_Z170_COOLC-HEATCNODE,Air,6
 Node,1068,BREAK_ROOM_43_Z170_HEATC-FANNODE,Air,5
 Node,1069,BREAK_ROOM_43_Z170_SUPPLYEQUIPMENTOUTLETNODE,Air,3
 Node,1070,MECHANICAL_43_Z171_SUPPLYINLET,Air,3
 Node,1071,MECHANICAL_43_Z171_COOLC-HEATCNODE,Air,6
 Node,1072,MECHANICAL_43_Z171_HEATC-FANNODE,Air,5
 Node,1073,MECHANICAL_43_Z171_SUPPLYEQUIPMENTOUTLETNODE,Air,3
 Node,1074,OFFICE_PRIVATE_43_Z172_SUPPLYINLET,Air,3
 Node,1075,OFFICE_PRIVATE_43_Z172_COOLC-HEATCNODE,Air,6
 Node,1076,OFFICE_PRIVATE_43_Z172_HEATC-FANNODE,Air,5
 Node,1077,OFFICE_PRIVATE_43_Z172_SUPPLYEQUIPMENTOUTLETNODE,Air,3
 Node,1078,STORAGE_43_Z173_SUPPLYINLET,Air,3
 Node,1079,STORAGE_43_Z173_COOLC-HEATCNODE,Air,6
 Node,1080,STORAGE_43_Z173_HEATC-FANNODE,Air,5
 Node,1081,STORAGE_43_Z173_SUPPLYEQUIPMENTOUTLETNODE,Air,3
 Node,1082,LOBBY_44_Z174_SUPPLYINLET,Air,3
 Node,1083,LOBBY_44_Z174_COOLC-HEATCNODE,Air,6
 Node,1084,LOBBY_44_Z174_HEATC-FANNODE,Air,5
 Node,1085,LOBBY_44_Z174_SUPPLYEQUIPMENTOUTLETNODE,Air,3
 Node,1086,CONFERENCE_44_Z175_SUPPLYINLET,Air,3
 Node,1087,CONFERENCE_44_Z175_COOLC-HEATCNODE,Air,6
 Node,1088,CONFERENCE_44_Z175_HEATC-FANNODE,Air,5
 Node,1089,CONFERENCE_44_Z175_SUPPLYEQUIPMENTOUTLETNODE,Air,3
 Node,1090,BREAK_ROOM_44_Z176_SUPPLYINLET,Air,3
 Node,1091,BREAK_ROOM_44_Z176_COOLC-HEATCNODE,Air,6
 Node,1092,BREAK_ROOM_44_Z176_HEATC-FANNODE,Air,5
 Node,1093,BREAK_ROOM_44_Z176_SUPPLYEQUIPMENTOUTLETNODE,Air,3
 Node,1094,MECHANICAL_44_Z177_SUPPLYINLET,Air,3
 Node,1095,MECHANICAL_44_Z177_COOLC-HEATCNODE,Air,6
 Node,1096,MECHANICAL_44_Z177_HEATC-FANNODE,Air,5
 Node,1097,MECHANICAL_44_Z177_SUPPLYEQUIPMENTOUTLETNODE,Air,3
 Node,1098,OFFICE_OPEN_44_Z178_SUPPLYINLET,Air,3
 Node,1099,OFFICE_OPEN_44_Z178_COOLC-HEATCNODE,Air,6
 Node,1100,OFFICE_OPEN_44_Z178_HEATC-FANNODE,Air,5
 Node,1101,OFFICE_OPEN_44_Z178_SUPPLYEQUIPMENTOUTLETNODE,Air,3
 Node,1102,OFFICE_PRIVATE_44_Z179_SUPPLYINLET,Air,3
 Node,1103,OFFICE_PRIVATE_44_Z179_COOLC-HEATCNODE,Air,6
 Node,1104,OFFICE_PRIVATE_44_Z179_HEATC-FANNODE,Air,5
 Node,1105,OFFICE_PRIVATE_44_Z179_SUPPLYEQUIPMENTOUTLETNODE,Air,3
 Node,1106,STORAGE_44_Z180_SUPPLYINLET,Air,3
 Node,1107,STORAGE_44_Z180_COOLC-HEATCNODE,Air,6
 Node,1108,STORAGE_44_Z180_HEATC-FANNODE,Air,5
 Node,1109,STORAGE_44_Z180_SUPPLYEQUIPMENTOUTLETNODE,Air,3
 Node,1110,CONFERENCE_45_Z181_SUPPLYINLET,Air,3
 Node,1111,CONFERENCE_45_Z181_COOLC-HEATCNODE,Air,6
 Node,1112,CONFERENCE_45_Z181_HEATC-FANNODE,Air,5
 Node,1113,CONFERENCE_45_Z181_SUPPLYEQUIPMENTOUTLETNODE,Air,3
 Node,1114,BREAK_ROOM_45_Z182_SUPPLYINLET,Air,3
 Node,1115,BREAK_ROOM_45_Z182_COOLC-HEATCNODE,Air,6
 Node,1116,BREAK_ROOM_45_Z182_HEATC-FANNODE,Air,5
 Node,1117,BREAK_ROOM_45_Z182_SUPPLYEQUIPMENTOUTLETNODE,Air,3
 Node,1118,MECHANICAL_45_Z183_SUPPLYINLET,Air,3
 Node,1119,MECHANICAL_45_Z183_COOLC-HEATCNODE,Air,6
 Node,1120,MECHANICAL_45_Z183_HEATC-FANNODE,Air,5
 Node,1121,MECHANICAL_45_Z183_SUPPLYEQUIPMENTOUTLETNODE,Air,3
 Node,1122,OFFICE_OPEN_45_Z184_SUPPLYINLET,Air,3
 Node,1123,OFFICE_OPEN_45_Z184_COOLC-HEATCNODE,Air,6
 Node,1124,OFFICE_OPEN_45_Z184_HEATC-FANNODE,Air,5
 Node,1125,OFFICE_OPEN_45_Z184_SUPPLYEQUIPMENTOUTLETNODE,Air,3
 Node,1126,STORAGE_45_Z185_SUPPLYINLET,Air,3
 Node,1127,STORAGE_45_Z185_COOLC-HEATCNODE,Air,6
 Node,1128,STORAGE_45_Z185_HEATC-FANNODE,Air,5
 Node,1129,STORAGE_45_Z185_SUPPLYEQUIPMENTOUTLETNODE,Air,3
 Node,1130,MECHANICAL_46_Z186_SUPPLYINLET,Air,3
 Node,1131,MECHANICAL_46_Z186_COOLC-HEATCNODE,Air,6
 Node,1132,MECHANICAL_46_Z186_HEATC-FANNODE,Air,5
 Node,1133,MECHANICAL_46_Z186_SUPPLYEQUIPMENTOUTLETNODE,Air,3
 Node,1134,OFFICE_PRIVATE_46_Z187_SUPPLYINLET,Air,3
 Node,1135,OFFICE_PRIVATE_46_Z187_COOLC-HEATCNODE,Air,6
 Node,1136,OFFICE_PRIVATE_46_Z187_HEATC-FANNODE,Air,5
 Node,1137,OFFICE_PRIVATE_46_Z187_SUPPLYEQUIPMENTOUTLETNODE,Air,3
 Node,1138,CONFERENCE_47_Z188_SUPPLYINLET,Air,3
 Node,1139,CONFERENCE_47_Z188_COOLC-HEATCNODE,Air,6
 Node,1140,CONFERENCE_47_Z188_HEATC-FANNODE,Air,5
 Node,1141,CONFERENCE_47_Z188_SUPPLYEQUIPMENTOUTLETNODE,Air,3
 Node,1142,BREAK_ROOM_47_Z189_SUPPLYINLET,Air,3
 Node,1143,BREAK_ROOM_47_Z189_COOLC-HEATCNODE,Air,6
 Node,1144,BREAK_ROOM_47_Z189_HEATC-FANNODE,Air,5
 Node,1145,BREAK_ROOM_47_Z189_SUPPLYEQUIPMENTOUTLETNODE,Air,3
 Node,1146,MECHANICAL_47_Z190_SUPPLYINLET,Air,3
 Node,1147,MECHANICAL_47_Z190_COOLC-HEATCNODE,Air,6
 Node,1148,MECHANICAL_47_Z190_HEATC-FANNODE,Air,5
 Node,1149,MECHANICAL_47_Z190_SUPPLYEQUIPMENTOUTLETNODE,Air,3
 Node,1150,OFFICE_PRIVATE_47_Z191_SUPPLYINLET,Air,3
 Node,1151,OFFICE_PRIVATE_47_Z191_COOLC-HEATCNODE,Air,6
 Node,1152,OFFICE_PRIVATE_47_Z191_HEATC-FANNODE,Air,5
 Node,1153,OFFICE_PRIVATE_47_Z191_SUPPLYEQUIPMENTOUTLETNODE,Air,3
 Node,1154,LOBBY_48_Z192_SUPPLYINLET,Air,3
 Node,1155,LOBBY_48_Z192_COOLC-HEATCNODE,Air,6
 Node,1156,LOBBY_48_Z192_HEATC-FANNODE,Air,5
 Node,1157,LOBBY_48_Z192_SUPPLYEQUIPMENTOUTLETNODE,Air,3
 Node,1158,CONFERENCE_48_Z193_SUPPLYINLET,Air,3
 Node,1159,CONFERENCE_48_Z193_COOLC-HEATCNODE,Air,6
 Node,1160,CONFERENCE_48_Z193_HEATC-FANNODE,Air,5
 Node,1161,CONFERENCE_48_Z193_SUPPLYEQUIPMENTOUTLETNODE,Air,3
 Node,1162,MECHANICAL_48_Z194_SUPPLYINLET,Air,3
 Node,1163,MECHANICAL_48_Z194_COOLC-HEATCNODE,Air,6
 Node,1164,MECHANICAL_48_Z194_HEATC-FANNODE,Air,5
 Node,1165,MECHANICAL_48_Z194_SUPPLYEQUIPMENTOUTLETNODE,Air,3
 Node,1166,OFFICE_PRIVATE_48_Z195_SUPPLYINLET,Air,3
 Node,1167,OFFICE_PRIVATE_48_Z195_COOLC-HEATCNODE,Air,6
 Node,1168,OFFICE_PRIVATE_48_Z195_HEATC-FANNODE,Air,5
 Node,1169,OFFICE_PRIVATE_48_Z195_SUPPLYEQUIPMENTOUTLETNODE,Air,3
 Node,1170,STORAGE_48_Z196_SUPPLYINLET,Air,3
 Node,1171,STORAGE_48_Z196_COOLC-HEATCNODE,Air,6
 Node,1172,STORAGE_48_Z196_HEATC-FANNODE,Air,5
 Node,1173,STORAGE_48_Z196_SUPPLYEQUIPMENTOUTLETNODE,Air,3
 Node,1174,BREAK_ROOM_49_Z197_SUPPLYINLET,Air,3
 Node,1175,BREAK_ROOM_49_Z197_COOLC-HEATCNODE,Air,6
 Node,1176,BREAK_ROOM_49_Z197_HEATC-FANNODE,Air,5
 Node,1177,BREAK_ROOM_49_Z197_SUPPLYEQUIPMENTOUTLETNODE,Air,3
 Node,1178,MECHANICAL_49_Z198_SUPPLYINLET,Air,3
 Node,1179,MECHANICAL_49_Z198_COOLC-HEATCNODE,Air,6
 Node,1180,MECHANICAL_49_Z198_HEATC-FANNODE,Air,5
 Node,1181,MECHANICAL_49_Z198_SUPPLYEQUIPMENTOUTLETNODE,Air,3
 Node,1182,OFFICE_PRIVATE_49_Z199_SUPPLYINLET,Air,3
 Node,1183,OFFICE_PRIVATE_49_Z199_COOLC-HEATCNODE,Air,6
 Node,1184,OFFICE_PRIVATE_49_Z199_HEATC-FANNODE,Air,5
 Node,1185,OFFICE_PRIVATE_49_Z199_SUPPLYEQUIPMENTOUTLETNODE,Air,3
 Node,1186,LOBBY_50_Z200_SUPPLYINLET,Air,3
 Node,1187,LOBBY_50_Z200_COOLC-HEATCNODE,Air,6
 Node,1188,LOBBY_50_Z200_HEATC-FANNODE,Air,5
 Node,1189,LOBBY_50_Z200_SUPPLYEQUIPMENTOUTLETNODE,Air,3
 Node,1190,CONFERENCE_50_Z201_SUPPLYINLET,Air,3
 Node,1191,CONFERENCE_50_Z201_COOLC-HEATCNODE,Air,6
 Node,1192,CONFERENCE_50_Z201_HEATC-FANNODE,Air,5
 Node,1193,CONFERENCE_50_Z201_SUPPLYEQUIPMENTOUTLETNODE,Air,3
 Node,1194,BREAK_ROOM_50_Z202_SUPPLYINLET,Air,3
 Node,1195,BREAK_ROOM_50_Z202_COOLC-HEATCNODE,Air,6
 Node,1196,BREAK_ROOM_50_Z202_HEATC-FANNODE,Air,5
 Node,1197,BREAK_ROOM_50_Z202_SUPPLYEQUIPMENTOUTLETNODE,Air,3
 Node,1198,MECHANICAL_50_Z203_SUPPLYINLET,Air,3
 Node,1199,MECHANICAL_50_Z203_COOLC-HEATCNODE,Air,6
 Node,1200,MECHANICAL_50_Z203_HEATC-FANNODE,Air,5
 Node,1201,MECHANICAL_50_Z203_SUPPLYEQUIPMENTOUTLETNODE,Air,3
 Node,1202,OFFICE_PRIVATE_50_Z204_SUPPLYINLET,Air,3
 Node,1203,OFFICE_PRIVATE_50_Z204_COOLC-HEATCNODE,Air,6
 Node,1204,OFFICE_PRIVATE_50_Z204_HEATC-FANNODE,Air,5
 Node,1205,OFFICE_PRIVATE_50_Z204_SUPPLYEQUIPMENTOUTLETNODE,Air,3
 Node,1206,STORAGE_50_Z205_SUPPLYINLET,Air,3
 Node,1207,STORAGE_50_Z205_COOLC-HEATCNODE,Air,6
 Node,1208,STORAGE_50_Z205_HEATC-FANNODE,Air,5
 Node,1209,STORAGE_50_Z205_SUPPLYEQUIPMENTOUTLETNODE,Air,3
 Node,1210,CONFERENCE_51_Z206_SUPPLYINLET,Air,3
 Node,1211,CONFERENCE_51_Z206_COOLC-HEATCNODE,Air,6
 Node,1212,CONFERENCE_51_Z206_HEATC-FANNODE,Air,5
 Node,1213,CONFERENCE_51_Z206_SUPPLYEQUIPMENTOUTLETNODE,Air,3
 Node,1214,BREAK_ROOM_51_Z207_SUPPLYINLET,Air,3
 Node,1215,BREAK_ROOM_51_Z207_COOLC-HEATCNODE,Air,6
 Node,1216,BREAK_ROOM_51_Z207_HEATC-FANNODE,Air,5
 Node,1217,BREAK_ROOM_51_Z207_SUPPLYEQUIPMENTOUTLETNODE,Air,3
 Node,1218,OFFICE_PRIVATE_51_Z208_SUPPLYINLET,Air,3
 Node,1219,OFFICE_PRIVATE_51_Z208_COOLC-HEATCNODE,Air,6
 Node,1220,OFFICE_PRIVATE_51_Z208_HEATC-FANNODE,Air,5
 Node,1221,OFFICE_PRIVATE_51_Z208_SUPPLYEQUIPMENTOUTLETNODE,Air,3
 Node,1222,LOBBY_52_Z209_SUPPLYINLET,Air,3
 Node,1223,LOBBY_52_Z209_COOLC-HEATCNODE,Air,6
 Node,1224,LOBBY_52_Z209_HEATC-FANNODE,Air,5
 Node,1225,LOBBY_52_Z209_SUPPLYEQUIPMENTOUTLETNODE,Air,3
 Node,1226,CONFERENCE_52_Z210_SUPPLYINLET,Air,3
 Node,1227,CONFERENCE_52_Z210_COOLC-HEATCNODE,Air,6
 Node,1228,CONFERENCE_52_Z210_HEATC-FANNODE,Air,5
 Node,1229,CONFERENCE_52_Z210_SUPPLYEQUIPMENTOUTLETNODE,Air,3
 Node,1230,MECHANICAL_52_Z211_SUPPLYINLET,Air,3
 Node,1231,MECHANICAL_52_Z211_COOLC-HEATCNODE,Air,6
 Node,1232,MECHANICAL_52_Z211_HEATC-FANNODE,Air,5
 Node,1233,MECHANICAL_52_Z211_SUPPLYEQUIPMENTOUTLETNODE,Air,3
 Node,1234,OFFICE_PRIVATE_52_Z212_SUPPLYINLET,Air,3
 Node,1235,OFFICE_PRIVATE_52_Z212_COOLC-HEATCNODE,Air,6
 Node,1236,OFFICE_PRIVATE_52_Z212_HEATC-FANNODE,Air,5
 Node,1237,OFFICE_PRIVATE_52_Z212_SUPPLYEQUIPMENTOUTLETNODE,Air,3
 Node,1238,STORAGE_52_Z213_SUPPLYINLET,Air,3
 Node,1239,STORAGE_52_Z213_COOLC-HEATCNODE,Air,6
 Node,1240,STORAGE_52_Z213_HEATC-FANNODE,Air,5
 Node,1241,STORAGE_52_Z213_SUPPLYEQUIPMENTOUTLETNODE,Air,3
 Node,1242,BREAK_ROOM_53_Z214_SUPPLYINLET,Air,3
 Node,1243,BREAK_ROOM_53_Z214_COOLC-HEATCNODE,Air,6
 Node,1244,BREAK_ROOM_53_Z214_HEATC-FANNODE,Air,5
 Node,1245,BREAK_ROOM_53_Z214_SUPPLYEQUIPMENTOUTLETNODE,Air,3
 Node,1246,OFFICE_OPEN_53_Z215_SUPPLYINLET,Air,3
 Node,1247,OFFICE_OPEN_53_Z215_COOLC-HEATCNODE,Air,6
 Node,1248,OFFICE_OPEN_53_Z215_HEATC-FANNODE,Air,5
 Node,1249,OFFICE_OPEN_53_Z215_SUPPLYEQUIPMENTOUTLETNODE,Air,3
 Node,1250,LOBBY_54_Z216_SUPPLYINLET,Air,3
 Node,1251,LOBBY_54_Z216_COOLC-HEATCNODE,Air,6
 Node,1252,LOBBY_54_Z216_HEATC-FANNODE,Air,5
 Node,1253,LOBBY_54_Z216_SUPPLYEQUIPMENTOUTLETNODE,Air,3
 Node,1254,CONFERENCE_54_Z217_SUPPLYINLET,Air,3
 Node,1255,CONFERENCE_54_Z217_COOLC-HEATCNODE,Air,6
 Node,1256,CONFERENCE_54_Z217_HEATC-FANNODE,Air,5
 Node,1257,CONFERENCE_54_Z217_SUPPLYEQUIPMENTOUTLETNODE,Air,3
 Node,1258,BREAK_ROOM_54_Z218_SUPPLYINLET,Air,3
 Node,1259,BREAK_ROOM_54_Z218_COOLC-HEATCNODE,Air,6
 Node,1260,BREAK_ROOM_54_Z218_HEATC-FANNODE,Air,5
 Node,1261,BREAK_ROOM_54_Z218_SUPPLYEQUIPMENTOUTLETNODE,Air,3
 Node,1262,MECHANICAL_54_Z219_SUPPLYINLET,Air,3
 Node,1263,MECHANICAL_54_Z219_COOLC-HEATCNODE,Air,6
 Node,1264,MECHANICAL_54_Z219_HEATC-FANNODE,Air,5
 Node,1265,MECHANICAL_54_Z219_SUPPLYEQUIPMENTOUTLETNODE,Air,3
 Node,1266,OFFICE_PRIVATE_54_Z220_SUPPLYINLET,Air,3
 Node,1267,OFFICE_PRIVATE_54_Z220_COOLC-HEATCNODE,Air,6
 Node,1268,OFFICE_PRIVATE_54_Z220_HEATC-FANNODE,Air,5
 Node,1269,OFFICE_PRIVATE_54_Z220_SUPPLYEQUIPMENTOUTLETNODE,Air,3
 Node,1270,STORAGE_54_Z221_SUPPLYINLET,Air,3
 Node,1271,STORAGE_54_Z221_COOLC-HEATCNODE,Air,6
 Node,1272,STORAGE_54_Z221_HEATC-FANNODE,Air,5
 Node,1273,STORAGE_54_Z221_SUPPLYEQUIPMENTOUTLETNODE,Air,3
 Node,1274,OFFICE_OPEN_55_Z222_SUPPLYINLET,Air,3
 Node,1275,OFFICE_OPEN_55_Z222_COOLC-HEATCNODE,Air,6
 Node,1276,OFFICE_OPEN_55_Z222_HEATC-FANNODE,Air,5
 Node,1277,OFFICE_OPEN_55_Z222_SUPPLYEQUIPMENTOUTLETNODE,Air,3
 Node,1278,OFFICE_PRIVATE_55_Z223_SUPPLYINLET,Air,3
 Node,1279,OFFICE_PRIVATE_55_Z223_COOLC-HEATCNODE,Air,6
 Node,1280,OFFICE_PRIVATE_55_Z223_HEATC-FANNODE,Air,5
 Node,1281,OFFICE_PRIVATE_55_Z223_SUPPLYEQUIPMENTOUTLETNODE,Air,3
 Node,1282,STORAGE_55_Z224_SUPPLYINLET,Air,3
 Node,1283,STORAGE_55_Z224_COOLC-HEATCNODE,Air,6
 Node,1284,STORAGE_55_Z224_HEATC-FANNODE,Air,5
 Node,1285,STORAGE_55_Z224_SUPPLYEQUIPMENTOUTLETNODE,Air,3
 Node,1286,LOBBY_56_Z225_SUPPLYINLET,Air,3
 Node,1287,LOBBY_56_Z225_COOLC-HEATCNODE,Air,6
 Node,1288,LOBBY_56_Z225_HEATC-FANNODE,Air,5
 Node,1289,LOBBY_56_Z225_SUPPLYEQUIPMENTOUTLETNODE,Air,3
 Node,1290,CONFERENCE_56_Z226_SUPPLYINLET,Air,3
 Node,1291,CONFERENCE_56_Z226_COOLC-HEATCNODE,Air,6
 Node,1292,CONFERENCE_56_Z226_HEATC-FANNODE,Air,5
 Node,1293,CONFERENCE_56_Z226_SUPPLYEQUIPMENTOUTLETNODE,Air,3
 Node,1294,OFFICE_PRIVATE_56_Z227_SUPPLYINLET,Air,3
 Node,1295,OFFICE_PRIVATE_56_Z227_COOLC-HEATCNODE,Air,6
 Node,1296,OFFICE_PRIVATE_56_Z227_HEATC-FANNODE,Air,5
 Node,1297,OFFICE_PRIVATE_56_Z227_SUPPLYEQUIPMENTOUTLETNODE,Air,3
 Node,1298,STORAGE_56_Z228_SUPPLYINLET,Air,3
 Node,1299,STORAGE_56_Z228_COOLC-HEATCNODE,Air,6
 Node,1300,STORAGE_56_Z228_HEATC-FANNODE,Air,5
 Node,1301,STORAGE_56_Z228_SUPPLYEQUIPMENTOUTLETNODE,Air,3
 Node,1302,CONFERENCE_57_Z229_SUPPLYINLET,Air,3
 Node,1303,CONFERENCE_57_Z229_COOLC-HEATCNODE,Air,6
 Node,1304,CONFERENCE_57_Z229_HEATC-FANNODE,Air,5
 Node,1305,CONFERENCE_57_Z229_SUPPLYEQUIPMENTOUTLETNODE,Air,3
 Node,1306,BREAK_ROOM_57_Z230_SUPPLYINLET,Air,3
 Node,1307,BREAK_ROOM_57_Z230_COOLC-HEATCNODE,Air,6
 Node,1308,BREAK_ROOM_57_Z230_HEATC-FANNODE,Air,5
 Node,1309,BREAK_ROOM_57_Z230_SUPPLYEQUIPMENTOUTLETNODE,Air,3
 Node,1310,OFFICE_PRIVATE_57_Z231_SUPPLYINLET,Air,3
 Node,1311,OFFICE_PRIVATE_57_Z231_COOLC-HEATCNODE,Air,6
 Node,1312,OFFICE_PRIVATE_57_Z231_HEATC-FANNODE,Air,5
 Node,1313,OFFICE_PRIVATE_57_Z231_SUPPLYEQUIPMENTOUTLETNODE,Air,3
 Node,1314,LOBBY_58_Z232_SUPPLYINLET,Air,3
 Node,1315,LOBBY_58_Z232_COOLC-HEATCNODE,Air,6
 Node,1316,LOBBY_58_Z232_HEATC-FANNODE,Air,5
 Node,1317,LOBBY_58_Z232_SUPPLYEQUIPMENTOUTLETNODE,Air,3
 Node,1318,OFFICE_OPEN_58_Z233_SUPPLYINLET,Air,3
 Node,1319,OFFICE_OPEN_58_Z233_COOLC-HEATCNODE,Air,6
 Node,1320,OFFICE_OPEN_58_Z233_HEATC-FANNODE,Air,5
 Node,1321,OFFICE_OPEN_58_Z233_SUPPLYEQUIPMENTOUTLETNODE,Air,3
 Node,1322,LOBBY_59_Z234_SUPPLYINLET,Air,3
 Node,1323,LOBBY_59_Z234_COOLC-HEATCNODE,Air,6
 Node,1324,LOBBY_59_Z234_HEATC-FANNODE,Air,5
 Node,1325,LOBBY_59_Z234_SUPPLYEQUIPMENTOUTLETNODE,Air,3
 Node,1326,CONFERENCE_59_Z235_SUPPLYINLET,Air,3
 Node,1327,CONFERENCE_59_Z235_COOLC-HEATCNODE,Air,6
 Node,1328,CONFERENCE_59_Z235_HEATC-FANNODE,Air,5
 Node,1329,CONFERENCE_59_Z235_SUPPLYEQUIPMENTOUTLETNODE,Air,3
 Node,1330,BREAK_ROOM_59_Z236_SUPPLYINLET,Air,3
 Node,1331,BREAK_ROOM_59_Z236_COOLC-HEATCNODE,Air,6
 Node,1332,BREAK_ROOM_59_Z236_HEATC-FANNODE,Air,5
 Node,1333,BREAK_ROOM_59_Z236_SUPPLYEQUIPMENTOUTLETNODE,Air,3
 Node,1334,MECHANICAL_59_Z237_SUPPLYINLET,Air,3
 Node,1335,MECHANICAL_59_Z237_COOLC-HEATCNODE,Air,6
 Node,1336,MECHANICAL_59_Z237_HEATC-FANNODE,Air,5
 Node,1337,MECHANICAL_59_Z237_SUPPLYEQUIPMENTOUTLETNODE,Air,3
 Node,1338,OFFICE_PRIVATE_59_Z238_SUPPLYINLET,Air,3
 Node,1339,OFFICE_PRIVATE_59_Z238_COOLC-HEATCNODE,Air,6
 Node,1340,OFFICE_PRIVATE_59_Z238_HEATC-FANNODE,Air,5
 Node,1341,OFFICE_PRIVATE_59_Z238_SUPPLYEQUIPMENTOUTLETNODE,Air,3
 Node,1342,LOBBY_60_Z239_SUPPLYINLET,Air,3
 Node,1343,LOBBY_60_Z239_COOLC-HEATCNODE,Air,6
 Node,1344,LOBBY_60_Z239_HEATC-FANNODE,Air,5
 Node,1345,LOBBY_60_Z239_SUPPLYEQUIPMENTOUTLETNODE,Air,3
 Node,1346,CONFERENCE_60_Z240_SUPPLYINLET,Air,3
 Node,1347,CONFERENCE_60_Z240_COOLC-HEATCNODE,Air,6
 Node,1348,CONFERENCE_60_Z240_HEATC-FANNODE,Air,5
 Node,1349,CONFERENCE_60_Z240_SUPPLYEQUIPMENTOUTLETNODE,Air,3
 Node,1350,OFFICE_OPEN_61_Z241_SUPPLYINLET,Air,3
 Node,1351,OFFICE_OPEN_61_Z241_COOLC-HEATCNODE,Air,6
 Node,1352,OFFICE_OPEN_61_Z241_HEATC-FANNODE,Air,5
 Node,1353,OFFICE_OPEN_61_Z241_SUPPLYEQUIPMENTOUTLETNODE,Air,3
 Node,1354,STORAGE_61_Z242_SUPPLYINLET,Air,3
 Node,1355,STORAGE_61_Z242_COOLC-HEATCNODE,Air,6
 Node,1356,STORAGE_61_Z242_HEATC-FANNODE,Air,5
 Node,1357,STORAGE_61_Z242_SUPPLYEQUIPMENTOUTLETNODE,Air,3
 Node,1358,BREAK_ROOM_62_Z243_SUPPLYINLET,Air,3
 Node,1359,BREAK_ROOM_62_Z243_COOLC-HEATCNODE,Air,6
 Node,1360,BREAK_ROOM_62_Z243_HEATC-FANNODE,Air,5
 Node,1361,BREAK_ROOM_62_Z243_SUPPLYEQUIPMENTOUTLETNODE,Air,3
 Node,1362,OFFICE_OPEN_62_Z244_SUPPLYINLET,Air,3
 Node,1363,OFFICE_OPEN_62_Z244_COOLC-HEATCNODE,Air,6
 Node,1364,OFFICE_OPEN_62_Z244_HEATC-FANNODE,Air,5
 Node,1365,OFFICE_OPEN_62_Z244_SUPPLYEQUIPMENTOUTLETNODE,Air,3
 Node,1366,OFFICE_PRIVATE_62_Z245_SUPPLYINLET,Air,3
 Node,1367,OFFICE_PRIVATE_62_Z245_COOLC-HEATCNODE,Air,6
 Node,1368,OFFICE_PRIVATE_62_Z245_HEATC-FANNODE,Air,5
 Node,1369,OFFICE_PRIVATE_62_Z245_SUPPLYEQUIPMENTOUTLETNODE,Air,3
 Node,1370,OFFICE_OPEN_63_Z246_SUPPLYINLET,Air,3
 Node,1371,OFFICE_OPEN_63_Z246_COOLC-HEATCNODE,Air,6
 Node,1372,OFFICE_OPEN_63_Z246_HEATC-FANNODE,Air,5
 Node,1373,OFFICE_OPEN_63_Z246_SUPPLYEQUIPMENTOUTLETNODE,Air,3
 Node,1374,OFFICE_PRIVATE_63_Z247_SUPPLYINLET,Air,3
 Node,1375,OFFICE_PRIVATE_63_Z247_COOLC-HEATCNODE,Air,6
 Node,1376,OFFICE_PRIVATE_63_Z247_HEATC-FANNODE,Air,5
 Node,1377,OFFICE_PRIVATE_63_Z247_SUPPLYEQUIPMENTOUTLETNODE,Air,3
 Node,1378,LOBBY_64_Z248_SUPPLYINLET,Air,3
 Node,1379,LOBBY_64_Z248_COOLC-HEATCNODE,Air,6
 Node,1380,LOBBY_64_Z248_HEATC-FANNODE,Air,5
 Node,1381,LOBBY_64_Z248_SUPPLYEQUIPMENTOUTLETNODE,Air,3
 Node,1382,CONFERENCE_64_Z249_SUPPLYINLET,Air,3
 Node,1383,CONFERENCE_64_Z249_COOLC-HEATCNODE,Air,6
 Node,1384,CONFERENCE_64_Z249_HEATC-FANNODE,Air,5
 Node,1385,CONFERENCE_64_Z249_SUPPLYEQUIPMENTOUTLETNODE,Air,3
 Node,1386,OFFICE_OPEN_64_Z250_SUPPLYINLET,Air,3
 Node,1387,OFFICE_OPEN_64_Z250_COOLC-HEATCNODE,Air,6
 Node,1388,OFFICE_OPEN_64_Z250_HEATC-FANNODE,Air,5
 Node,1389,OFFICE_OPEN_64_Z250_SUPPLYEQUIPMENTOUTLETNODE,Air,3
 Node,1390,OFFICE_PRIVATE_64_Z251_SUPPLYINLET,Air,3
 Node,1391,OFFICE_PRIVATE_64_Z251_COOLC-HEATCNODE,Air,6
 Node,1392,OFFICE_PRIVATE_64_Z251_HEATC-FANNODE,Air,5
 Node,1393,OFFICE_PRIVATE_64_Z251_SUPPLYEQUIPMENTOUTLETNODE,Air,3
 Node,1394,OFFICE_OPEN_65_Z252_SUPPLYINLET,Air,3
 Node,1395,OFFICE_OPEN_65_Z252_COOLC-HEATCNODE,Air,6
 Node,1396,OFFICE_OPEN_65_Z252_HEATC-FANNODE,Air,5
 Node,1397,OFFICE_OPEN_65_Z252_SUPPLYEQUIPMENTOUTLETNODE,Air,3
 Node,1398,STORAGE_65_Z253_SUPPLYINLET,Air,3
 Node,1399,STORAGE_65_Z253_COOLC-HEATCNODE,Air,6
 Node,1400,STORAGE_65_Z253_HEATC-FANNODE,Air,5
 Node,1401,STORAGE_65_Z253_SUPPLYEQUIPMENTOUTLETNODE,Air,3
 Node,1402,BREAK_ROOM_66_Z254_SUPPLYINLET,Air,3
 Node,1403,BREAK_ROOM_66_Z254_COOLC-HEATCNODE,Air,6
 Node,1404,BREAK_ROOM_66_Z254_HEATC-FANNODE,Air,5
 Node,1405,BREAK_ROOM_66_Z254_SUPPLYEQUIPMENTOUTLETNODE,Air,3
 Node,1406,MECHANICAL_66_Z255_SUPPLYINLET,Air,3
 Node,1407,MECHANICAL_66_Z255_COOLC-HEATCNODE,Air,6
 Node,1408,MECHANICAL_66_Z255_HEATC-FANNODE,Air,5
 Node,1409,MECHANICAL_66_Z255_SUPPLYEQUIPMENTOUTLETNODE,Air,3
 Node,1410,OFFICE_OPEN_67_Z256_SUPPLYINLET,Air,3
 Node,1411,OFFICE_OPEN_67_Z256_COOLC-HEATCNODE,Air,6
 Node,1412,OFFICE_OPEN_67_Z256_HEATC-FANNODE,Air,5
 Node,1413,OFFICE_OPEN_67_Z256_SUPPLYEQUIPMENTOUTLETNODE,Air,3
 Node,1414,STORAGE_67_Z257_SUPPLYINLET,Air,3
 Node,1415,STORAGE_67_Z257_COOLC-HEATCNODE,Air,6
 Node,1416,STORAGE_67_Z257_HEATC-FANNODE,Air,5
 Node,1417,STORAGE_67_Z257_SUPPLYEQUIPMENTOUTLETNODE,Air,3
 Node,1418,LOBBY_68_Z258_SUPPLYINLET,Air,3
 Node,1419,LOBBY_68_Z258_COOLC-HEATCNODE,Air,6
 Node,1420,LOBBY_68_Z258_HEATC-FANNODE,Air,5
 Node,1421,LOBBY_68_Z258_SUPPLYEQUIPMENTOUTLETNODE,Air,3
 Node,1422,CONFERENCE_68_Z259_SUPPLYINLET,Air,3
 Node,1423,CONFERENCE_68_Z259_COOLC-HEATCNODE,Air,6
 Node,1424,CONFERENCE_68_Z259_HEATC-FANNODE,Air,5
 Node,1425,CONFERENCE_68_Z259_SUPPLYEQUIPMENTOUTLETNODE,Air,3
 Node,1426,MECHANICAL_68_Z260_SUPPLYINLET,Air,3
 Node,1427,MECHANICAL_68_Z260_COOLC-HEATCNODE,Air,6
 Node,1428,MECHANICAL_68_Z260_HEATC-FANNODE,Air,5
 Node,1429,MECHANICAL_68_Z260_SUPPLYEQUIPMENTOUTLETNODE,Air,3
 Node,1430,OFFICE_PRIVATE_68_Z261_SUPPLYINLET,Air,3
 Node,1431,OFFICE_PRIVATE_68_Z261_COOLC-HEATCNODE,Air,6
 Node,1432,OFFICE_PRIVATE_68_Z261_HEATC-FANNODE,Air,5
 Node,1433,OFFICE_PRIVATE_68_Z261_SUPPLYEQUIPMENTOUTLETNODE,Air,3
 Node,1434,LOBBY_69_Z262_SUPPLYINLET,Air,3
 Node,1435,LOBBY_69_Z262_COOLC-HEATCNODE,Air,6
 Node,1436,LOBBY_69_Z262_HEATC-FANNODE,Air,5
 Node,1437,LOBBY_69_Z262_SUPPLYEQUIPMENTOUTLETNODE,Air,3
 Node,1438,CONFERENCE_69_Z263_SUPPLYINLET,Air,3
 Node,1439,CONFERENCE_69_Z263_COOLC-HEATCNODE,Air,6
 Node,1440,CONFERENCE_69_Z263_HEATC-FANNODE,Air,5
 Node,1441,CONFERENCE_69_Z263_SUPPLYEQUIPMENTOUTLETNODE,Air,3
 Node,1442,MECHANICAL_69_Z264_SUPPLYINLET,Air,3
 Node,1443,MECHANICAL_69_Z264_COOLC-HEATCNODE,Air,6
 Node,1444,MECHANICAL_69_Z264_HEATC-FANNODE,Air,5
 Node,1445,MECHANICAL_69_Z264_SUPPLYEQUIPMENTOUTLETNODE,Air,3
 Node,1446,OFFICE_OPEN_69_Z265_SUPPLYINLET,Air,3
 Node,1447,OFFICE_OPEN_69_Z265_COOLC-HEATCNODE,Air,6
 Node,1448,OFFICE_OPEN_69_Z265_HEATC-FANNODE,Air,5
 Node,1449,OFFICE_OPEN_69_Z265_SUPPLYEQUIPMENTOUTLETNODE,Air,3
 Node,1450,OFFICE_PRIVATE_69_Z266_SUPPLYINLET,Air,3
 Node,1451,OFFICE_PRIVATE_69_Z266_COOLC-HEATCNODE,Air,6
 Node,1452,OFFICE_PRIVATE_69_Z266_HEATC-FANNODE,Air,5
 Node,1453,OFFICE_PRIVATE_69_Z266_SUPPLYEQUIPMENTOUTLETNODE,Air,3
 Node,1454,STORAGE_69_Z267_SUPPLYINLET,Air,3
 Node,1455,STORAGE_69_Z267_COOLC-HEATCNODE,Air,6
 Node,1456,STORAGE_69_Z267_HEATC-FANNODE,Air,5
 Node,1457,STORAGE_69_Z267_SUPPLYEQUIPMENTOUTLETNODE,Air,3
 Node,1458,LOBBY_70_Z268_SUPPLYINLET,Air,3
 Node,1459,LOBBY_70_Z268_COOLC-HEATCNODE,Air,6
 Node,1460,LOBBY_70_Z268_HEATC-FANNODE,Air,5
 Node,1461,LOBBY_70_Z268_SUPPLYEQUIPMENTOUTLETNODE,Air,3
 Node,1462,BREAK_ROOM_70_Z269_SUPPLYINLET,Air,3
 Node,1463,BREAK_ROOM_70_Z269_COOLC-HEATCNODE,Air,6
 Node,1464,BREAK_ROOM_70_Z269_HEATC-FANNODE,Air,5
 Node,1465,BREAK_ROOM_70_Z269_SUPPLYEQUIPMENTOUTLETNODE,Air,3
 Node,1466,OFFICE_PRIVATE_70_Z270_SUPPLYINLET,Air,3
 Node,1467,OFFICE_PRIVATE_70_Z270_COOLC-HEATCNODE,Air,6
 Node,1468,OFFICE_PRIVATE_70_Z270_HEATC-FANNODE,Air,5
 Node,1469,OFFICE_PRIVATE_70_Z270_SUPPLYEQUIPMENTOUTLETNODE,Air,3
 Node,1470,STORAGE_70_Z271_SUPPLYINLET,Air,3
 Node,1471,STORAGE_70_Z271_COOLC-HEATCNODE,Air,6
 Node,1472,STORAGE_70_Z271_HEATC-FANNODE,Air,5
 Node,1473,STORAGE_70_Z271_SUPPLYEQUIPMENTOUTLETNODE,Air,3
 Node,1474,CONFERENCE_71_Z272_SUPPLYINLET,Air,3
 Node,1475,CONFERENCE_71_Z272_COOLC-HEATCNODE,Air,6
 Node,1476,CONFERENCE_71_Z272_HEATC-FANNODE,Air,5
 Node,1477,CONFERENCE_71_Z272_SUPPLYEQUIPMENTOUTLETNODE,Air,3
 Node,1478,MECHANICAL_71_Z273_SUPPLYINLET,Air,3
 Node,1479,MECHANICAL_71_Z273_COOLC-HEATCNODE,Air,6
 Node,1480,MECHANICAL_71_Z273_HEATC-FANNODE,Air,5
 Node,1481,MECHANICAL_71_Z273_SUPPLYEQUIPMENTOUTLETNODE,Air,3
 Node,1482,OFFICE_PRIVATE_71_Z274_SUPPLYINLET,Air,3
 Node,1483,OFFICE_PRIVATE_71_Z274_COOLC-HEATCNODE,Air,6
 Node,1484,OFFICE_PRIVATE_71_Z274_HEATC-FANNODE,Air,5
 Node,1485,OFFICE_PRIVATE_71_Z274_SUPPLYEQUIPMENTOUTLETNODE,Air,3
 Node,1486,LOBBY_72_Z275_SUPPLYINLET,Air,3
 Node,1487,LOBBY_72_Z275_COOLC-HEATCNODE,Air,6
 Node,1488,LOBBY_72_Z275_HEATC-FANNODE,Air,5
 Node,1489,LOBBY_72_Z275_SUPPLYEQUIPMENTOUTLETNODE,Air,3
 Node,1490,CONFERENCE_72_Z276_SUPPLYINLET,Air,3
 Node,1491,CONFERENCE_72_Z276_COOLC-HEATCNODE,Air,6
 Node,1492,CONFERENCE_72_Z276_HEATC-FANNODE,Air,5
 Node,1493,CONFERENCE_72_Z276_SUPPLYEQUIPMENTOUTLETNODE,Air,3
 Node,1494,BREAK_ROOM_72_Z277_SUPPLYINLET,Air,3
 Node,1495,BREAK_ROOM_72_Z277_COOLC-HEATCNODE,Air,6
 Node,1496,BREAK_ROOM_72_Z277_HEATC-FANNODE,Air,5
 Node,1497,BREAK_ROOM_72_Z277_SUPPLYEQUIPMENTOUTLETNODE,Air,3
 Node,1498,MECHANICAL_72_Z278_SUPPLYINLET,Air,3
 Node,1499,MECHANICAL_72_Z278_COOLC-HEATCNODE,Air,6
 Node,1500,MECHANICAL_72_Z278_HEATC-FANNODE,Air,5
 Node,1501,MECHANICAL_72_Z278_SUPPLYEQUIPMENTOUTLETNODE,Air,3
 Node,1502,OFFICE_OPEN_72_Z279_SUPPLYINLET,Air,3
 Node,1503,OFFICE_OPEN_72_Z279_COOLC-HEATCNODE,Air,6
 Node,1504,OFFICE_OPEN_72_Z279_HEATC-FANNODE,Air,5
 Node,1505,OFFICE_OPEN_72_Z279_SUPPLYEQUIPMENTOUTLETNODE,Air,3
 Node,1506,BREAK_ROOM_73_Z280_SUPPLYINLET,Air,3
 Node,1507,BREAK_ROOM_73_Z280_COOLC-HEATCNODE,Air,6
 Node,1508,BREAK_ROOM_73_Z280_HEATC-FANNODE,Air,5
 Node,1509,BREAK_ROOM_73_Z280_SUPPLYEQUIPMENTOUTLETNODE,Air,3
 Node,1510,MECHANICAL_73_Z281_SUPPLYINLET,Air,3
 Node,1511,MECHANICAL_73_Z281_COOLC-HEATCNODE,Air,6
 Node,1512,MECHANICAL_73_Z281_HEATC-FANNODE,Air,5
 Node,1513,MECHANICAL_73_Z281_SUPPLYEQUIPMENTOUTLETNODE,Air,3
 Node,1514,OFFICE_OPEN_73_Z282_SUPPLYINLET,Air,3
 Node,1515,OFFICE_OPEN_73_Z282_COOLC-HEATCNODE,Air,6
 Node,1516,OFFICE_OPEN_73_Z282_HEATC-FANNODE,Air,5
 Node,1517,OFFICE_OPEN_73_Z282_SUPPLYEQUIPMENTOUTLETNODE,Air,3
 Node,1518,OFFICE_PRIVATE_73_Z283_SUPPLYINLET,Air,3
 Node,1519,OFFICE_PRIVATE_73_Z283_COOLC-HEATCNODE,Air,6
 Node,1520,OFFICE_PRIVATE_73_Z283_HEATC-FANNODE,Air,5
 Node,1521,OFFICE_PRIVATE_73_Z283_SUPPLYEQUIPMENTOUTLETNODE,Air,3
 Node,1522,OFFICE_PRIVATE_74_Z284_SUPPLYINLET,Air,3
 Node,1523,OFFICE_PRIVATE_74_Z284_COOLC-HEATCNODE,Air,6
 Node,1524,OFFICE_PRIVATE_74_Z284_HEATC-FANNODE,Air,5
 Node,1525,OFFICE_PRIVATE_74_Z284_SUPPLYEQUIPMENTOUTLETNODE,Air,3
 Node,1526,STORAGE_74_Z285_SUPPLYINLET,Air,3
 Node,1527,STORAGE_74_Z285_COOLC-HEATCNODE,Air,6
 Node,1528,STORAGE_74_Z285_HEATC-FANNODE,Air,5
 Node,1529,STORAGE_74_Z285_SUPPLYEQUIPMENTOUTLETNODE,Air,3
 Node,1530,LOBBY_75_Z286_SUPPLYINLET,Air,3
 Node,1531,LOBBY_75_Z286_COOLC-HEATCNODE,Air,6
 Node,1532,LOBBY_75_Z286_HEATC-FANNODE,Air,5
 Node,1533,LOBBY_75_Z286_SUPPLYEQUIPMENTOUTLETNODE,Air,3
 Node,1534,CONFERENCE_75_Z287_SUPPLYINLET,Air,3
 Node,1535,CONFERENCE_75_Z287_COOLC-HEATCNODE,Air,6
 Node,1536,CONFERENCE_75_Z287_HEATC-FANNODE,Air,5
 Node,1537,CONFERENCE_75_Z287_SUPPLYEQUIPMENTOUTLETNODE,Air,3
 Node,1538,BREAK_ROOM_75_Z288_SUPPLYINLET,Air,3
 Node,1539,BREAK_ROOM_75_Z288_COOLC-HEATCNODE,Air,6
 Node,1540,BREAK_ROOM_75_Z288_HEATC-FANNODE,Air,5
 Node,1541,BREAK_ROOM_75_Z288_SUPPLYEQUIPMENTOUTLETNODE,Air,3
 Node,1542,MECHANICAL_75_Z289_SUPPLYINLET,Air,3
 Node,1543,MECHANICAL_75_Z289_COOLC-HEATCNODE,Air,6
 Node,1544,MECHANICAL_75_Z289_HEATC-FANNODE,Air,5
 Node,1545,MECHANICAL_75_Z289_SUPPLYEQUIPMENTOUTLETNODE,Air,3
 Node,1546,OFFICE_PRIVATE_75_Z290_SUPPLYINLET,Air,3
 Node,1547,OFFICE_PRIVATE_75_Z290_COOLC-HEATCNODE,Air,6
 Node,1548,OFFICE_PRIVATE_75_Z290_HEATC-FANNODE,Air,5
 Node,1549,OFFICE_PRIVATE_75_Z290_SUPPLYEQUIPMENTOUTLETNODE,Air,3
 Node,1550,LOBBY_76_Z291_SUPPLYINLET,Air,3
 Node,1551,LOBBY_76_Z291_COOLC-HEATCNODE,Air,6
 Node,1552,LOBBY_76_Z291_HEATC-FANNODE,Air,5
 Node,1553,LOBBY_76_Z291_SUPPLYEQUIPMENTOUTLETNODE,Air,3
 Node,1554,CONFERENCE_76_Z292_SUPPLYINLET,Air,3
 Node,1555,CONFERENCE_76_Z292_COOLC-HEATCNODE,Air,6
 Node,1556,CONFERENCE_76_Z292_HEATC-FANNODE,Air,5
 Node,1557,CONFERENCE_76_Z292_SUPPLYEQUIPMENTOUTLETNODE,Air,3
 Node,1558,OFFICE_OPEN_76_Z293_SUPPLYINLET,Air,3
 Node,1559,OFFICE_OPEN_76_Z293_COOLC-HEATCNODE,Air,6
 Node,1560,OFFICE_OPEN_76_Z293_HEATC-FANNODE,Air,5
 Node,1561,OFFICE_OPEN_76_Z293_SUPPLYEQUIPMENTOUTLETNODE,Air,3
 Node,1562,BREAK_ROOM_77_Z294_SUPPLYINLET,Air,3
 Node,1563,BREAK_ROOM_77_Z294_COOLC-HEATCNODE,Air,6
 Node,1564,BREAK_ROOM_77_Z294_HEATC-FANNODE,Air,5
 Node,1565,BREAK_ROOM_77_Z294_SUPPLYEQUIPMENTOUTLETNODE,Air,3
 Node,1566,MECHANICAL_77_Z295_SUPPLYINLET,Air,3
 Node,1567,MECHANICAL_77_Z295_COOLC-HEATCNODE,Air,6
 Node,1568,MECHANICAL_77_Z295_HEATC-FANNODE,Air,5
 Node,1569,MECHANICAL_77_Z295_SUPPLYEQUIPMENTOUTLETNODE,Air,3
 Node,1570,STORAGE_77_Z296_SUPPLYINLET,Air,3
 Node,1571,STORAGE_77_Z296_COOLC-HEATCNODE,Air,6
 Node,1572,STORAGE_77_Z296_HEATC-FANNODE,Air,5
 Node,1573,STORAGE_77_Z296_SUPPLYEQUIPMENTOUTLETNODE,Air,3
 Node,1574,LOBBY_78_Z297_SUPPLYINLET,Air,3
 Node,1575,LOBBY_78_Z297_COOLC-HEATCNODE,Air,6
 Node,1576,LOBBY_78_Z297_HEATC-FANNODE,Air,5
 Node,1577,LOBBY_78_Z297_SUPPLYEQUIPMENTOUTLETNODE,Air,3
 Node,1578,BREAK_ROOM_78_Z298_SUPPLYINLET,Air,3
 Node,1579,BREAK_ROOM_78_Z298_COOLC-HEATCNODE,Air,6
 Node,1580,BREAK_ROOM_78_Z298_HEATC-FANNODE,Air,5
 Node,1581,BREAK_ROOM_78_Z298_SUPPLYEQUIPMENTOUTLETNODE,Air,3
 Node,1582,MECHANICAL_78_Z299_SUPPLYINLET,Air,3
 Node,1583,MECHANICAL_78_Z299_COOLC-HEATCNODE,Air,6
 Node,1584,MECHANICAL_78_Z299_HEATC-FANNODE,Air,5
 Node,1585,MECHANICAL_78_Z299_SUPPLYEQUIPMENTOUTLETNODE,Air,3
 Node,1586,OFFICE_PRIVATE_78_Z300_SUPPLYINLET,Air,3
 Node,1587,OFFICE_PRIVATE_78_Z300_COOLC-HEATCNODE,Air,6
 Node,1588,OFFICE_PRIVATE_78_Z300_HEATC-FANNODE,Air,5
 Node,1589,OFFICE_PRIVATE_78_Z300_SUPPLYEQUIPMENTOUTLETNODE,Air,3
 Node,1590,LOBBY_79_Z301_SUPPLYINLET,Air,3
 Node,1591,LOBBY_79_Z301_COOLC-HEATCNODE,Air,6
 Node,1592,LOBBY_79_Z301_HEATC-FANNODE,Air,5
 Node,1593,LOBBY_79_Z301_SUPPLYEQUIPMENTOUTLETNODE,Air,3
[...]
 Non-Parent Node Connection,LOBBY_81_Z310_COOLC-HEATCNODE,COIL:COOLING:DX:SINGLESPEED,LOBBY_81_Z310_COOLINGCOILDX,Outlet,1
 Non-Parent Node Connection,OFFICE_OPEN_81_Z311_SUPPLYINLET,COIL:COOLING:DX:SINGLESPEED,OFFICE_OPEN_81_Z311_COOLINGCOILDX,Inlet,1
 Non-Parent Node Connection,OFFICE_OPEN_81_Z311_COOLC-HEATCNODE,COIL:COOLING:DX:SINGLESPEED,OFFICE_OPEN_81_Z311_COOLINGCOILDX,Outlet,1
 Non-Parent Node Connection,OFFICE_PRIVATE_81_Z312_SUPPLYINLET,COIL:COOLING:DX:SINGLESPEED,OFFICE_PRIVATE_81_Z312_COOLINGCOILDX,Inlet,1
 Non-Parent Node Connection,OFFICE_PRIVATE_81_Z312_COOLC-HEATCNODE,COIL:COOLING:DX:SINGLESPEED,OFFICE_PRIVATE_81_Z312_COOLINGCOILDX,Outlet,1
 Non-Parent Node Connection,STORAGE_81_Z313_SUPPLYINLET,COIL:COOLING:DX:SINGLESPEED,STORAGE_81_Z313_COOLINGCOILDX,Inlet,1
 Non-Parent Node Connection,STORAGE_81_Z313_COOLC-HEATCNODE,COIL:COOLING:DX:SINGLESPEED,STORAGE_81_Z313_COOLINGCOILDX,Outlet,1
 Non-Parent Node Connection,LOBBY_82_Z314_SUPPLYINLET,COIL:COOLING:DX:SINGLESPEED,LOBBY_82_Z314_COOLINGCOILDX,Inlet,1
 Non-Parent Node Connection,LOBBY_82_Z314_COOLC-HEATCNODE,COIL:COOLING:DX:SINGLESPEED,LOBBY_82_Z314_COOLINGCOILDX,Outlet,1
 Non-Parent Node Connection,CONFERENCE_82_Z315_SUPPLYINLET,COIL:COOLING:DX:SINGLESPEED,CONFERENCE_82_Z315_COOLINGCOILDX,Inlet,1
 Non-Parent Node Connection,CONFERENCE_82_Z315_COOLC-HEATCNODE,COIL:COOLING:DX:SINGLESPEED,CONFERENCE_82_Z315_COOLINGCOILDX,Outlet,1
 Non-Parent Node Connection,BREAK_ROOM_82_Z316_SUPPLYINLET,COIL:COOLING:DX:SINGLESPEED,BREAK_ROOM_82_Z316_COOLINGCOILDX,Inlet,1
 Non-Parent Node Connection,BREAK_ROOM_82_Z316_COOLC-HEATCNODE,COIL:COOLING:DX:SINGLESPEED,BREAK_ROOM_82_Z316_COOLINGCOILDX,Outlet,1
 Non-Parent Node Connection,OFFICE_PRIVATE_82_Z317_SUPPLYINLET,COIL:COOLING:DX:SINGLESPEED,OFFICE_PRIVATE_82_Z317_COOLINGCOILDX,Inlet,1
 Non-Parent Node Connection,OFFICE_PRIVATE_82_Z317_COOLC-HEATCNODE,COIL:COOLING:DX:SINGLESPEED,OFFICE_PRIVATE_82_Z317_COOLINGCOILDX,Outlet,1
 Non-Parent Node Connection,STORAGE_82_Z318_SUPPLYINLET,COIL:COOLING:DX:SINGLESPEED,STORAGE_82_Z318_COOLINGCOILDX,Inlet,1
 Non-Parent Node Connection,STORAGE_82_Z318_COOLC-HEATCNODE,COIL:COOLING:DX:SINGLESPEED,STORAGE_82_Z318_COOLINGCOILDX,Outlet,1
 Non-Parent Node Connection,LOBBY_83_Z319_SUPPLYINLET,COIL:COOLING:DX:SINGLESPEED,LOBBY_83_Z319_COOLINGCOILDX,Inlet,1
 Non-Parent Node Connection,LOBBY_83_Z319_COOLC-HEATCNODE,COIL:COOLING:DX:SINGLESPEED,LOBBY_83_Z319_COOLINGCOILDX,Outlet,1
 Non-Parent Node Connection,CONFERENCE_83_Z320_SUPPLYINLET,COIL:COOLING:DX:SINGLESPEED,CONFERENCE_83_Z320_COOLINGCOILDX,Inlet,1
 Non-Parent Node Connection,CONFERENCE_83_Z320_COOLC-HEATCNODE,COIL:COOLING:DX:SINGLESPEED,CONFERENCE_83_Z320_COOLINGCOILDX,Outlet,1
 Non-Parent Node Connection,OFFICE_OPEN_83_Z321_SUPPLYINLET,COIL:COOLING:DX:SINGLESPEED,OFFICE_OPEN_83_Z321_COOLINGCOILDX,Inlet,1
 Non-Parent Node Connection,OFFICE_OPEN_83_Z321_COOLC-HEATCNODE,COIL:COOLING:DX:SINGLESPEED,OFFICE_OPEN_83_Z321_COOLINGCOILDX,Outlet,1
 Non-Parent Node Connection,OFFICE_PRIVATE_83_Z322_SUPPLYINLET,COIL:COOLING:DX:SINGLESPEED,OFFICE_PRIVATE_83_Z322_COOLINGCOILDX,Inlet,1
 Non-Parent Node Connection,OFFICE_PRIVATE_83_Z322_COOLC-HEATCNODE,COIL:COOLING:DX:SINGLESPEED,OFFICE_PRIVATE_83_Z322_COOLINGCOILDX,Outlet,1
 Non-Parent Node Connection,STORAGE_83_Z323_SUPPLYINLET,COIL:COOLING:DX:SINGLESPEED,STORAGE_83_Z323_COOLINGCOILDX,Inlet,1
 Non-Parent Node Connection,STORAGE_83_Z323_COOLC-HEATCNODE,COIL:COOLING:DX:SINGLESPEED,STORAGE_83_Z323_COOLINGCOILDX,Outlet,1
 Non-Parent Node Connection,BREAK_ROOM_84_Z324_SUPPLYINLET,COIL:COOLING:DX:SINGLESPEED,BREAK_ROOM_84_Z324_COOLINGCOILDX,Inlet,1
 Non-Parent Node Connection,BREAK_ROOM_84_Z324_COOLC-HEATCNODE,COIL:COOLING:DX:SINGLESPEED,BREAK_ROOM_84_Z324_COOLINGCOILDX,Outlet,1
 Non-Parent Node Connection,OFFICE_PRIVATE_84_Z325_SUPPLYINLET,COIL:COOLING:DX:SINGLESPEED,OFFICE_PRIVATE_84_Z325_COOLINGCOILDX,Inlet,1
 Non-Parent Node Connection,OFFICE_PRIVATE_84_Z325_COOLC-HEATCNODE,COIL:COOLING:DX:SINGLESPEED,OFFICE_PRIVATE_84_Z325_COOLINGCOILDX,Outlet,1
 Non-Parent Node Connection,BREAK_ROOM_85_Z326_SUPPLYINLET,COIL:COOLING:DX:SINGLESPEED,BREAK_ROOM_85_Z326_COOLINGCOILDX,Inlet,1
 Non-Parent Node Connection,BREAK_ROOM_85_Z326_COOLC-HEATCNODE,COIL:COOLING:DX:SINGLESPEED,BREAK_ROOM_85_Z326_COOLINGCOILDX,Outlet,1
 Non-Parent Node Connection,MECHANICAL_85_Z327_SUPPLYINLET,COIL:COOLING:DX:SINGLESPEED,MECHANICAL_85_Z327_COOLINGCOILDX,Inlet,1
 Non-Parent Node Connection,MECHANICAL_85_Z327_COOLC-HEATCNODE,COIL:COOLING:DX:SINGLESPEED,MECHANICAL_85_Z327_COOLINGCOILDX,Outlet,1
 Non-Parent Node Connection,OFFICE_OPEN_85_Z328_SUPPLYINLET,COIL:COOLING:DX:SINGLESPEED,OFFICE_OPEN_85_Z328_COOLINGCOILDX,Inlet,1
 Non-Parent Node Connection,OFFICE_OPEN_85_Z328_COOLC-HEATCNODE,COIL:COOLING:DX:SINGLESPEED,OFFICE_OPEN_85_Z328_COOLINGCOILDX,Outlet,1
 Non-Parent Node Connection,CONFERENCE_86_Z329_SUPPLYINLET,COIL:COOLING:DX:SINGLESPEED,CONFERENCE_86_Z329_COOLINGCOILDX,Inlet,1
 Non-Parent Node Connection,CONFERENCE_86_Z329_COOLC-HEATCNODE,COIL:COOLING:DX:SINGLESPEED,CONFERENCE_86_Z329_COOLINGCOILDX,Outlet,1
 Non-Parent Node Connection,MECHANICAL_86_Z330_SUPPLYINLET,COIL:COOLING:DX:SINGLESPEED,MECHANICAL_86_Z330_COOLINGCOILDX,Inlet,1
 Non-Parent Node Connection,MECHANICAL_86_Z330_COOLC-HEATCNODE,COIL:COOLING:DX:SINGLESPEED,MECHANICAL_86_Z330_COOLINGCOILDX,Outlet,1
 Non-Parent Node Connection,OFFICE_PRIVATE_86_Z331_SUPPLYINLET,COIL:COOLING:DX:SINGLESPEED,OFFICE_PRIVATE_86_Z331_COOLINGCOILDX,Inlet,1
 Non-Parent Node Connection,OFFICE_PRIVATE_86_Z331_COOLC-HEATCNODE,COIL:COOLING:DX:SINGLESPEED,OFFICE_PRIVATE_86_Z331_COOLINGCOILDX,Outlet,1
 Non-Parent Node Connection,MECHANICAL_87_Z332_SUPPLYINLET,COIL:COOLING:DX:SINGLESPEED,MECHANICAL_87_Z332_COOLINGCOILDX,Inlet,1
 Non-Parent Node Connection,MECHANICAL_87_Z332_COOLC-HEATCNODE,COIL:COOLING:DX:SINGLESPEED,MECHANICAL_87_Z332_COOLINGCOILDX,Outlet,1
 Non-Parent Node Connection,LOBBY_88_Z333_SUPPLYINLET,COIL:COOLING:DX:SINGLESPEED,LOBBY_88_Z333_COOLINGCOILDX,Inlet,1
 Non-Parent Node Connection,LOBBY_88_Z333_COOLC-HEATCNODE,COIL:COOLING:DX:SINGLESPEED,LOBBY_88_Z333_COOLINGCOILDX,Outlet,1
 Non-Parent Node Connection,CONFERENCE_88_Z334_SUPPLYINLET,COIL:COOLING:DX:SINGLESPEED,CONFERENCE_88_Z334_COOLINGCOILDX,Inlet,1
 Non-Parent Node Connection,CONFERENCE_88_Z334_COOLC-HEATCNODE,COIL:COOLING:DX:SINGLESPEED,CONFERENCE_88_Z334_COOLINGCOILDX,Outlet,1
 Non-Parent Node Connection,BREAK_ROOM_88_Z335_SUPPLYINLET,COIL:COOLING:DX:SINGLESPEED,BREAK_ROOM_88_Z335_COOLINGCOILDX,Inlet,1
 Non-Parent Node Connection,BREAK_ROOM_88_Z335_COOLC-HEATCNODE,COIL:COOLING:DX:SINGLESPEED,BREAK_ROOM_88_Z335_COOLINGCOILDX,Outlet,1
 Non-Parent Node Connection,STORAGE_88_Z336_SUPPLYINLET,COIL:COOLING:DX:SINGLESPEED,STORAGE_88_Z336_COOLINGCOILDX,Inlet,1
 Non-Parent Node Connection,STORAGE_88_Z336_COOLC-HEATCNODE,COIL:COOLING:DX:SINGLESPEED,STORAGE_88_Z336_COOLINGCOILDX,Outlet,1
 Non-Parent Node Connection,BREAK_ROOM_89_Z337_SUPPLYINLET,COIL:COOLING:DX:SINGLESPEED,BREAK_ROOM_89_Z337_COOLINGCOILDX,Inlet,1
 Non-Parent Node Connection,BREAK_ROOM_89_Z337_COOLC-HEATCNODE,COIL:COOLING:DX:SINGLESPEED,BREAK_ROOM_89_Z337_COOLINGCOILDX,Outlet,1
 Non-Parent Node Connection,OFFICE_PRIVATE_89_Z338_SUPPLYINLET,COIL:COOLING:DX:SINGLESPEED,OFFICE_PRIVATE_89_Z338_COOLINGCOILDX,Inlet,1
 Non-Parent Node Connection,OFFICE_PRIVATE_89_Z338_COOLC-HEATCNODE,COIL:COOLING:DX:SINGLESPEED,OFFICE_PRIVATE_89_Z338_COOLINGCOILDX,Outlet,1
 Non-Parent Node Connection,BREAK_ROOM_90_Z339_SUPPLYINLET,COIL:COOLING:DX:SINGLESPEED,BREAK_ROOM_90_Z339_COOLINGCOILDX,Inlet,1
 Non-Parent Node Connection,BREAK_ROOM_90_Z339_COOLC-HEATCNODE,COIL:COOLING:DX:SINGLESPEED,BREAK_ROOM_90_Z339_COOLINGCOILDX,Outlet,1
 Non-Parent Node Connection,OFFICE_PRIVATE_90_Z340_SUPPLYINLET,COIL:COOLING:DX:SINGLESPEED,OFFICE_PRIVATE_90_Z340_COOLINGCOILDX,Inlet,1
 Non-Parent Node Connection,OFFICE_PRIVATE_90_Z340_COOLC-HEATCNODE,COIL:COOLING:DX:SINGLESPEED,OFFICE_PRIVATE_90_Z340_COOLINGCOILDX,Outlet,1
 Non-Parent Node Connection,STORAGE_90_Z341_SUPPLYINLET,COIL:COOLING:DX:SINGLESPEED,STORAGE_90_Z341_COOLINGCOILDX,Inlet,1
 Non-Parent Node Connection,STORAGE_90_Z341_COOLC-HEATCNODE,COIL:COOLING:DX:SINGLESPEED,STORAGE_90_Z341_COOLINGCOILDX,Outlet,1
 Non-Parent Node Connection,BREAK_ROOM_91_Z342_SUPPLYINLET,COIL:COOLING:DX:SINGLESPEED,BREAK_ROOM_91_Z342_COOLINGCOILDX,Inlet,1
 Non-Parent Node Connection,BREAK_ROOM_91_Z342_COOLC-HEATCNODE,COIL:COOLING:DX:SINGLESPEED,BREAK_ROOM_91_Z342_COOLINGCOILDX,Outlet,1
 Non-Parent Node Connection,STORAGE_91_Z343_SUPPLYINLET,COIL:COOLING:DX:SINGLESPEED,STORAGE_91_Z343_COOLINGCOILDX,Inlet,1
 Non-Parent Node Connection,STORAGE_91_Z343_COOLC-HEATCNODE,COIL:COOLING:DX:SINGLESPEED,STORAGE_91_Z343_COOLINGCOILDX,Outlet,1
 Non-Parent Node Connection,LOBBY_92_Z344_SUPPLYINLET,COIL:COOLING:DX:SINGLESPEED,LOBBY_92_Z344_COOLINGCOILDX,Inlet,1
 Non-Parent Node Connection,LOBBY_92_Z344_COOLC-HEATCNODE,COIL:COOLING:DX:SINGLESPEED,LOBBY_92_Z344_COOLINGCOILDX,Outlet,1
 Non-Parent Node Connection,CONFERENCE_92_Z345_SUPPLYINLET,COIL:COOLING:DX:SINGLESPEED,CONFERENCE_92_Z345_COOLINGCOILDX,Inlet,1
 Non-Parent Node Connection,CONFERENCE_92_Z345_COOLC-HEATCNODE,COIL:COOLING:DX:SINGLESPEED,CONFERENCE_92_Z345_COOLINGCOILDX,Outlet,1
 Non-Parent Node Connection,BREAK_ROOM_92_Z346_SUPPLYINLET,COIL:COOLING:DX:SINGLESPEED,BREAK_ROOM_92_Z346_COOLINGCOILDX,Inlet,1
 Non-Parent Node Connection,BREAK_ROOM_92_Z346_COOLC-HEATCNODE,COIL:COOLING:DX:SINGLESPEED,BREAK_ROOM_92_Z346_COOLINGCOILDX,Outlet,1
 Non-Parent Node Connection,STORAGE_92_Z347_SUPPLYINLET,COIL:COOLING:DX:SINGLESPEED,STORAGE_92_Z347_COOLINGCOILDX,Inlet,1
 Non-Parent Node Connection,STORAGE_92_Z347_COOLC-HEATCNODE,COIL:COOLING:DX:SINGLESPEED,STORAGE_92_Z347_COOLINGCOILDX,Outlet,1
 Non-Parent Node Connection,LOBBY_93_Z348_SUPPLYINLET,COIL:COOLING:DX:SINGLESPEED,LOBBY_93_Z348_COOLINGCOILDX,Inlet,1
 Non-Parent Node Connection,LOBBY_93_Z348_COOLC-HEATCNODE,COIL:COOLING:DX:SINGLESPEED,LOBBY_93_Z348_COOLINGCOILDX,Outlet,1
 Non-Parent Node Connection,CONFERENCE_93_Z349_SUPPLYINLET,COIL:COOLING:DX:SINGLESPEED,CONFERENCE_93_Z349_COOLINGCOILDX,Inlet,1
 Non-Parent Node Connection,CONFERENCE_93_Z349_COOLC-HEATCNODE,COIL:COOLING:DX:SINGLESPEED,CONFERENCE_93_Z349_COOLINGCOILDX,Outlet,1
 Non-Parent Node Connection,MECHANICAL_93_Z350_SUPPLYINLET,COIL:COOLING:DX:SINGLESPEED,MECHANICAL_93_Z350_COOLINGCOILDX,Inlet,1
 Non-Parent Node Connection,MECHANICAL_93_Z350_COOLC-HEATCNODE,COIL:COOLING:DX:SINGLESPEED,MECHANICAL_93_Z350_COOLINGCOILDX,Outlet,1
 Non-Parent Node Connection,STORAGE_93_Z351_SUPPLYINLET,COIL:COOLING:DX:SINGLESPEED,STORAGE_93_Z351_COOLINGCOILDX,Inlet,1
 Non-Parent Node Connection,STORAGE_93_Z351_COOLC-HEATCNODE,COIL:COOLING:DX:SINGLESPEED,STORAGE_93_Z351_COOLINGCOILDX,Outlet,1
 Non-Parent Node Connection,MECHANICAL_94_Z352_SUPPLYINLET,COIL:COOLING:DX:SINGLESPEED,MECHANICAL_94_Z352_COOLINGCOILDX,Inlet,1
 Non-Parent Node Connection,MECHANICAL_94_Z352_COOLC-HEATCNODE,COIL:COOLING:DX:SINGLESPEED,MECHANICAL_94_Z352_COOLINGCOILDX,Outlet,1
 Non-Parent Node Connection,LOBBY_95_Z353_SUPPLYINLET,COIL:COOLING:DX:SINGLESPEED,LOBBY_95_Z353_COOLINGCOILDX,Inlet,1
 Non-Parent Node Connection,LOBBY_95_Z353_COOLC-HEATCNODE,COIL:COOLING:DX:SINGLESPEED,LOBBY_95_Z353_COOLINGCOILDX,Outlet,1
 Non-Parent Node Connection,CONFERENCE_95_Z354_SUPPLYINLET,COIL:COOLING:DX:SINGLESPEED,CONFERENCE_95_Z354_COOLINGCOILDX,Inlet,1
 Non-Parent Node Connection,CONFERENCE_95_Z354_COOLC-HEATCNODE,COIL:COOLING:DX:SINGLESPEED,CONFERENCE_95_Z354_COOLINGCOILDX,Outlet,1
 Non-Parent Node Connection,BREAK_ROOM_95_Z355_SUPPLYINLET,COIL:COOLING:DX:SINGLESPEED,BREAK_ROOM_95_Z355_COOLINGCOILDX,Inlet,1
 Non-Parent Node Connection,BREAK_ROOM_95_Z355_COOLC-HEATCNODE,COIL:COOLING:DX:SINGLESPEED,BREAK_ROOM_95_Z355_COOLINGCOILDX,Outlet,1
 Non-Parent Node Connection,OFFICE_OPEN_95_Z356_SUPPLYINLET,COIL:COOLING:DX:SINGLESPEED,OFFICE_OPEN_95_Z356_COOLINGCOILDX,Inlet,1
 Non-Parent Node Connection,OFFICE_OPEN_95_Z356_COOLC-HEATCNODE,COIL:COOLING:DX:SINGLESPEED,OFFICE_OPEN_95_Z356_COOLINGCOILDX,Outlet,1
 Non-Parent Node Connection,STORAGE_95_Z357_SUPPLYINLET,COIL:COOLING:DX:SINGLESPEED,STORAGE_95_Z357_COOLINGCOILDX,Inlet,1
 Non-Parent Node Connection,STORAGE_95_Z357_COOLC-HEATCNODE,COIL:COOLING:DX:SINGLESPEED,STORAGE_95_Z357_COOLINGCOILDX,Outlet,1
 Non-Parent Node Connection,CONFERENCE_96_Z358_SUPPLYINLET,COIL:COOLING:DX:SINGLESPEED,CONFERENCE_96_Z358_COOLINGCOILDX,Inlet,1
 Non-Parent Node Connection,CONFERENCE_96_Z358_COOLC-HEATCNODE,COIL:COOLING:DX:SINGLESPEED,CONFERENCE_96_Z358_COOLINGCOILDX,Outlet,1
 Non-Parent Node Connection,BREAK_ROOM_96_Z359_SUPPLYINLET,COIL:COOLING:DX:SINGLESPEED,BREAK_ROOM_96_Z359_COOLINGCOILDX,Inlet,1
 Non-Parent Node Connection,BREAK_ROOM_96_Z359_COOLC-HEATCNODE,COIL:COOLING:DX:SINGLESPEED,BREAK_ROOM_96_Z359_COOLINGCOILDX,Outlet,1
 Non-Parent Node Connection,MECHANICAL_96_Z360_SUPPLYINLET,COIL:COOLING:DX:SINGLESPEED,MECHANICAL_96_Z360_COOLINGCOILDX,Inlet,1
 Non-Parent Node Connection,MECHANICAL_96_Z360_COOLC-HEATCNODE,COIL:COOLING:DX:SINGLESPEED,MECHANICAL_96_Z360_COOLINGCOILDX,Outlet,1
 Non-Parent Node Connection,OFFICE_PRIVATE_96_Z361_SUPPLYINLET,COIL:COOLING:DX:SINGLESPEED,OFFICE_PRIVATE_96_Z361_COOLINGCOILDX,Inlet,1
 Non-Parent Node Connection,OFFICE_PRIVATE_96_Z361_COOLC-HEATCNODE,COIL:COOLING:DX:SINGLESPEED,OFFICE_PRIVATE_96_Z361_COOLINGCOILDX,Outlet,1
 Non-Parent Node Connection,STORAGE_96_Z362_SUPPLYINLET,COIL:COOLING:DX:SINGLESPEED,STORAGE_96_Z362_COOLINGCOILDX,Inlet,1
 Non-Parent Node Connection,STORAGE_96_Z362_COOLC-HEATCNODE,COIL:COOLING:DX:SINGLESPEED,STORAGE_96_Z362_COOLINGCOILDX,Outlet,1
 Non-Parent Node Connection,CONFERENCE_97_Z363_SUPPLYINLET,COIL:COOLING:DX:SINGLESPEED,CONFERENCE_97_Z363_COOLINGCOILDX,Inlet,1
 Non-Parent Node Connection,CONFERENCE_97_Z363_COOLC-HEATCNODE,COIL:COOLING:DX:SINGLESPEED,CONFERENCE_97_Z363_COOLINGCOILDX,Outlet,1
 Non-Parent Node Connection,BREAK_ROOM_97_Z364_SUPPLYINLET,COIL:COOLING:DX:SINGLESPEED,BREAK_ROOM_97_Z364_COOLINGCOILDX,Inlet,1
 Non-Parent Node Connection,BREAK_ROOM_97_Z364_COOLC-HEATCNODE,COIL:COOLING:DX:SINGLESPEED,BREAK_ROOM_97_Z364_COOLINGCOILDX,Outlet,1
 Non-Parent Node Connection,OFFICE_PRIVATE_97_Z365_SUPPLYINLET,COIL:COOLING:DX:SINGLESPEED,OFFICE_PRIVATE_97_Z365_COOLINGCOILDX,Inlet,1
 Non-Parent Node Connection,OFFICE_PRIVATE_97_Z365_COOLC-HEATCNODE,COIL:COOLING:DX:SINGLESPEED,OFFICE_PRIVATE_97_Z365_COOLINGCOILDX,Outlet,1
 Non-Parent Node Connection,CONFERENCE_98_Z366_SUPPLYINLET,COIL:COOLING:DX:SINGLESPEED,CONFERENCE_98_Z366_COOLINGCOILDX,Inlet,1
 Non-Parent Node Connection,CONFERENCE_98_Z366_COOLC-HEATCNODE,COIL:COOLING:DX:SINGLESPEED,CONFERENCE_98_Z366_COOLINGCOILDX,Outlet,1
 Non-Parent Node Connection,BREAK_ROOM_98_Z367_SUPPLYINLET,COIL:COOLING:DX:SINGLESPEED,BREAK_ROOM_98_Z367_COOLINGCOILDX,Inlet,1
 Non-Parent Node Connection,BREAK_ROOM_98_Z367_COOLC-HEATCNODE,COIL:COOLING:DX:SINGLESPEED,BREAK_ROOM_98_Z367_COOLINGCOILDX,Outlet,1
 Non-Parent Node Connection,OFFICE_OPEN_98_Z368_SUPPLYINLET,COIL:COOLING:DX:SINGLESPEED,OFFICE_OPEN_98_Z368_COOLINGCOILDX,Inlet,1
 Non-Parent Node Connection,OFFICE_OPEN_98_Z368_COOLC-HEATCNODE,COIL:COOLING:DX:SINGLESPEED,OFFICE_OPEN_98_Z368_COOLINGCOILDX,Outlet,1
 Non-Parent Node Connection,STORAGE_98_Z369_SUPPLYINLET,COIL:COOLING:DX:SINGLESPEED,STORAGE_98_Z369_COOLINGCOILDX,Inlet,1
 Non-Parent Node Connection,STORAGE_98_Z369_COOLC-HEATCNODE,COIL:COOLING:DX:SINGLESPEED,STORAGE_98_Z369_COOLINGCOILDX,Outlet,1
 Non-Parent Node Connection,LOBBY_99_Z370_SUPPLYINLET,COIL:COOLING:DX:SINGLESPEED,LOBBY_99_Z370_COOLINGCOILDX,Inlet,1
 Non-Parent Node Connection,LOBBY_99_Z370_COOLC-HEATCNODE,COIL:COOLING:DX:SINGLESPEED,LOBBY_99_Z370_COOLINGCOILDX,Outlet,1
 Non-Parent Node Connection,CONFERENCE_99_Z371_SUPPLYINLET,COIL:COOLING:DX:SINGLESPEED,CONFERENCE_99_Z371_COOLINGCOILDX,Inlet,1
 Non-Parent Node Connection,CONFERENCE_99_Z371_COOLC-HEATCNODE,COIL:COOLING:DX:SINGLESPEED,CONFERENCE_99_Z371_COOLINGCOILDX,Outlet,1
 Non-Parent Node Connection,BREAK_ROOM_99_Z372_SUPPLYINLET,COIL:COOLING:DX:SINGLESPEED,BREAK_ROOM_99_Z372_COOLINGCOILDX,Inlet,1
 Non-Parent Node Connection,BREAK_ROOM_99_Z372_COOLC-HEATCNODE,COIL:COOLING:DX:SINGLESPEED,BREAK_ROOM_99_Z372_COOLINGCOILDX,Outlet,1
 Non-Parent Node Connection,OFFICE_OPEN_99_Z373_SUPPLYINLET,COIL:COOLING:DX:SINGLESPEED,OFFICE_OPEN_99_Z373_COOLINGCOILDX,Inlet,1
 Non-Parent Node Connection,OFFICE_OPEN_99_Z373_COOLC-HEATCNODE,COIL:COOLING:DX:SINGLESPEED,OFFICE_OPEN_99_Z373_COOLINGCOILDX,Outlet,1
 Non-Parent Node Connection,STORAGE_99_Z374_SUPPLYINLET,COIL:COOLING:DX:SINGLESPEED,STORAGE_99_Z374_COOLINGCOILDX,Inlet,1
 Non-Parent Node Connection,STORAGE_99_Z374_COOLC-HEATCNODE,COIL:COOLING:DX:SINGLESPEED,STORAGE_99_Z374_COOLINGCOILDX,Outlet,1
 Non-Parent Node Connection,CONFERENCE_100_Z375_SUPPLYINLET,COIL:COOLING:DX:SINGLESPEED,CONFERENCE_100_Z375_COOLINGCOILDX,Inlet,1
 Non-Parent Node Connection,CONFERENCE_100_Z375_COOLC-HEATCNODE,COIL:COOLING:DX:SINGLESPEED,CONFERENCE_100_Z375_COOLINGCOILDX,Outlet,1
 Non-Parent Node Connection,BREAK_ROOM_100_Z376_SUPPLYINLET,COIL:COOLING:DX:SINGLESPEED,BREAK_ROOM_100_Z376_COOLINGCOILDX,Inlet,1
 Non-Parent Node Connection,BREAK_ROOM_100_Z376_COOLC-HEATCNODE,COIL:COOLING:DX:SINGLESPEED,BREAK_ROOM_100_Z376_COOLINGCOILDX,Outlet,1
 Non-Parent Node Connection,MECHANICAL_100_Z377_SUPPLYINLET,COIL:COOLING:DX:SINGLESPEED,MECHANICAL_100_Z377_COOLINGCOILDX,Inlet,1
 Non-Parent Node Connection,MECHANICAL_100_Z377_COOLC-HEATCNODE,COIL:COOLING:DX:SINGLESPEED,MECHANICAL_100_Z377_COOLINGCOILDX,Outlet,1
 Non-Parent Node Connection,LOBBY_101_Z378_SUPPLYINLET,COIL:COOLING:DX:SINGLESPEED,LOBBY_101_Z378_COOLINGCOILDX,Inlet,1
 Non-Parent Node Connection,LOBBY_101_Z378_COOLC-HEATCNODE,COIL:COOLING:DX:SINGLESPEED,LOBBY_101_Z378_COOLINGCOILDX,Outlet,1
 Non-Parent Node Connection,BREAK_ROOM_101_Z379_SUPPLYINLET,COIL:COOLING:DX:SINGLESPEED,BREAK_ROOM_101_Z379_COOLINGCOILDX,Inlet,1
 Non-Parent Node Connection,BREAK_ROOM_101_Z379_COOLC-HEATCNODE,COIL:COOLING:DX:SINGLESPEED,BREAK_ROOM_101_Z379_COOLINGCOILDX,Outlet,1
 Non-Parent Node Connection,OFFICE_OPEN_101_Z380_SUPPLYINLET,COIL:COOLING:DX:SINGLESPEED,OFFICE_OPEN_101_Z380_COOLINGCOILDX,Inlet,1
 Non-Parent Node Connection,OFFICE_OPEN_101_Z380_COOLC-HEATCNODE,COIL:COOLING:DX:SINGLESPEED,OFFICE_OPEN_101_Z380_COOLINGCOILDX,Outlet,1
 Non-Parent Node Connection,OFFICE_PRIVATE_101_Z381_SUPPLYINLET,COIL:COOLING:DX:SINGLESPEED,OFFICE_PRIVATE_101_Z381_COOLINGCOILDX,Inlet,1
 Non-Parent Node Connection,OFFICE_PRIVATE_101_Z381_COOLC-HEATCNODE,COIL:COOLING:DX:SINGLESPEED,OFFICE_PRIVATE_101_Z381_COOLINGCOILDX,Outlet,1
 Non-Parent Node Connection,STORAGE_101_Z382_SUPPLYINLET,COIL:COOLING:DX:SINGLESPEED,STORAGE_101_Z382_COOLINGCOILDX,Inlet,1
 Non-Parent Node Connection,STORAGE_101_Z382_COOLC-HEATCNODE,COIL:COOLING:DX:SINGLESPEED,STORAGE_101_Z382_COOLINGCOILDX,Outlet,1
 Non-Parent Node Connection,LOBBY_102_Z383_SUPPLYINLET,COIL:COOLING:DX:SINGLESPEED,LOBBY_102_Z383_COOLINGCOILDX,Inlet,1
 Non-Parent Node Connection,LOBBY_102_Z383_COOLC-HEATCNODE,COIL:COOLING:DX:SINGLESPEED,LOBBY_102_Z383_COOLINGCOILDX,Outlet,1
 Non-Parent Node Connection,BREAK_ROOM_102_Z384_SUPPLYINLET,COIL:COOLING:DX:SINGLESPEED,BREAK_ROOM_102_Z384_COOLINGCOILDX,Inlet,1
 Non-Parent Node Connection,BREAK_ROOM_102_Z384_COOLC-HEATCNODE,COIL:COOLING:DX:SINGLESPEED,BREAK_ROOM_102_Z384_COOLINGCOILDX,Outlet,1
 Non-Parent Node Connection,LOBBY_103_Z385_SUPPLYINLET,COIL:COOLING:DX:SINGLESPEED,LOBBY_103_Z385_COOLINGCOILDX,Inlet,1
 Non-Parent Node Connection,LOBBY_103_Z385_COOLC-HEATCNODE,COIL:COOLING:DX:SINGLESPEED,LOBBY_103_Z385_COOLINGCOILDX,Outlet,1
 Non-Parent Node Connection,BREAK_ROOM_103_Z386_SUPPLYINLET,COIL:COOLING:DX:SINGLESPEED,BREAK_ROOM_103_Z386_COOLINGCOILDX,Inlet,1
 Non-Parent Node Connection,BREAK_ROOM_103_Z386_COOLC-HEATCNODE,COIL:COOLING:DX:SINGLESPEED,BREAK_ROOM_103_Z386_COOLINGCOILDX,Outlet,1
 Non-Parent Node Connection,MECHANICAL_103_Z387_SUPPLYI